[TITLE]
INP file created by FLO-2D

[OPTIONS]
FLOW_UNITS           CFS
INFILTRATION         HORTON
FLOW_ROUTING         DYNWAVE
START_DATE           12/15/2021
START_TIME           00:00:00
REPORT_START_DATE    12/15/2021
REPORT_START_TIME    00:00:00
END_DATE             12/16/2021
END_TIME             00:00:00
SWEEP_START          01/01
SWEEP_END            12/31
DRY_DAYS             0
REPORT_STEP          00:06:00
WET_STEP             00:05:00
DRY_STEP             01:00:00
ROUTING_STEP         00:01:00
ALLOW_PONDING        NO
INERTIAL_DAMPING     PARTIAL
VARIABLE_STEP        0.75
LENGTHENING_STEP     0
MIN_SURFAREA         0
NORMAL_FLOW_LIMITED  BOTH
SKIP_STEADY_STATE    NO
FORCE_MAIN_EQUATION  H-W
LINK_OFFSETS         DEPTH
MIN_SLOPE            0.01

[JUNCTIONS]
;;               Invert     Max.       Init.      Surcharge  Ponded
;;Name           Elev.      Depth      Depth      Depth      Area
;;-------------- ---------- ---------- ---------- ---------- ----------
I2-62            5.91       3.71       0.00       0.00       0.00      
I2-63            5.87       2.92       0.00       0.00       0.00      
I2-64            5.81       2.43       0.00       0.00       0.00      
IM5-43           5.74       3.95       0.00       0.00       0.00      
I2-65            5.12       4.57       0.00       0.00       0.00      
I2-66            5.90       3.03       0.00       0.00       0.00      
I2-814           5.35       3.56       0.00       0.00       0.00      
I2-67            4.86       3.85       0.00       0.00       0.00      
IM5-44           4.75       6.30       0.00       0.00       0.00      
I2-68            4.49       5.71       0.00       0.00       0.00      
I2-69            4.72       5.29       0.00       0.00       0.00      
IM5-45           4.36       5.17       0.00       0.00       0.00      
I2-70            3.58       5.84       0.00       0.00       0.00      
I3-14            5.58       4.26       0.00       0.00       0.00      
I2-71            3.38       4.92       0.00       0.00       0.00      
I3-15            4.21       4.29       0.00       0.00       0.00      
I2-72            3.68       4.29       0.00       0.00       0.00      
I3-16            3.31       5.64       0.00       0.00       0.00      
I2-73            3.22       5.97       0.00       0.00       0.00      
I2-74            3.45       5.26       0.00       0.00       0.00      
I2-75            3.13       5.41       0.00       0.00       0.00      
I2-76            3.39       5.08       0.00       0.00       0.00      
I2-77            3.05       5.86       0.00       0.00       0.00      
I2-78            2.93       5.89       0.00       0.00       0.00      
I2-79            3.19       5.22       0.00       0.00       0.00      
I2-80            2.80       5.42       0.00       0.00       0.00      
I2-81            3.14       5.13       0.00       0.00       0.00      
I2-82            2.70       5.69       0.00       0.00       0.00      
I2-83            2.96       5.24       0.00       0.00       0.00      
I2-84            2.80       4.90       0.00       0.00       0.00      
I2-85            2.54       5.28       0.00       0.00       0.00      
I2-86            2.34       6.00       0.00       0.00       0.00      
IM5-46           2.30       5.48       0.00       0.00       0.00      
I2-87            2.43       5.31       0.00       0.00       0.00      
I2-88            4.35       3.73       0.00       0.00       0.00      
I2-89            2.79       5.36       0.00       0.00       0.00      
I2-90            2.59       5.40       0.00       0.00       0.00      
I2-91            2.95       4.47       0.00       0.00       0.00      
I2-92            3.45       3.44       0.00       0.00       0.00      
I2-93            3.22       4.82       0.00       0.00       0.00      
I2-94            3.41       4.54       0.00       0.00       0.00      
I2-96            6.02       3.49       0.00       0.00       0.00      
I2-97            5.67       3.76       0.00       0.00       0.00      
I3-17            5.47       2.70       0.00       0.00       0.00      
IM5-50           5.10       4.75       0.00       0.00       0.00      
I2-100           5.78       4.27       0.00       0.00       0.00      
IM5-51           4.83       4.43       0.00       0.00       0.00      
I2-101           5.70       3.93       0.00       0.00       0.00      
I2-102           6.10       3.63       0.00       0.00       0.00      
I2-815           5.72       3.79       0.00       0.00       0.00      
I2-103           6.92       2.47       0.00       0.00       0.00      
IM5-52           4.53       4.77       0.00       0.00       0.00      
I2-104           4.24       5.39       0.00       0.00       0.00      
I2-105           3.97       5.69       0.00       0.00       0.00      
I2-106           7.09       2.85       0.00       0.00       0.00      
IM5-460          3.61       5.92       0.00       0.00       0.00      
I2-108           5.98       3.46       0.00       0.00       0.00      
I2-107           6.54       2.55       0.00       0.00       0.00      
IM5-150          3.22       6.38       0.00       0.00       0.00      
IM5-53           2.96       5.94       0.00       0.00       0.00      
I2-109           6.02       3.18       0.00       0.00       0.00      
I2-110           6.96       2.42       0.00       0.00       0.00      
IM5-54           6.50       2.48       0.00       0.00       0.00      
IM5-55           6.26       2.27       0.00       0.00       0.00      
I2-111           6.50       1.89       0.00       0.00       0.00      
IM5-56           3.52       6.33       0.00       0.00       0.00      
IM5-57           2.69       6.42       0.00       0.00       0.00      
IM5-58           2.53       6.40       0.00       0.00       0.00      
I2-112           5.50       3.41       0.00       0.00       0.00      
IM5-59           2.10       6.71       0.00       0.00       0.00      
I3-18            3.50       4.17       0.00       0.00       0.00      
IM5-61           3.61       4.18       0.00       0.00       0.00      
IM5-60           1.77       6.47       0.00       0.00       0.00      
I2-114           4.15       3.96       0.00       0.00       0.00      
I2-113           5.90       2.48       0.00       0.00       0.00      
I3-852           3.24       4.63       0.00       0.00       0.00      
IM5-63           1.44       7.61       0.00       0.00       0.00      
I2-118           6.02       3.07       0.00       0.00       0.00      
I3-19            1.12       1.75       0.00       0.00       0.00      
I3-20            2.79       1.42       0.00       0.00       0.00      
IM5-66           1.33       7.68       0.00       0.00       0.00      
I2-117           6.08       2.09       0.00       0.00       0.00      
I2-116           4.88       3.49       0.00       0.00       0.00      
IM5-64           3.75       4.34       0.00       0.00       0.00      
I2-115           3.31       5.01       0.00       0.00       0.00      
I3-90            3.02       5.43       0.00       0.00       0.00      
IM5-65           3.10       5.97       0.00       0.00       0.00      
I4-1             5.24       0.00       0.00       0.00       0.00      
I2-120           5.95       3.54       0.00       0.00       0.00      
I2-122           5.64       3.67       0.00       0.00       0.00      
IM5-69           5.43       3.62       0.00       0.00       0.00      
IM5-70           4.95       3.75       0.00       0.00       0.00      
I2-121           4.96       3.71       0.00       0.00       0.00      
I2-123           5.21       2.73       0.00       0.00       0.00      
I3-849           4.24       5.30       0.00       0.00       0.00      
I2-124           6.45       2.69       0.00       0.00       0.00      
IM5-67           6.27       3.88       0.00       0.00       0.00      
I2-119           5.93       3.02       0.00       0.00       0.00      
IM5-68           3.64       4.40       0.00       0.00       0.00      
I3-21            3.13       3.67       0.00       0.00       0.00      
I2-125           7.40       1.81       0.00       0.00       0.00      
IM5-151          7.11       1.73       0.00       0.00       0.00      
IM5-72           6.93       2.18       0.00       0.00       0.00      
I2-127           6.87       2.50       0.00       0.00       0.00      
I2-126           6.67       2.66       0.00       0.00       0.00      
I2-128           6.27       2.67       0.00       0.00       0.00      
IM5-73           6.09       1.25       0.00       0.00       0.00      
I3-87            3.88       3.31       0.00       0.00       0.00      
I3-22            5.56       2.00       0.00       0.00       0.00      
I4-12            11.93      0.00       0.00       0.00       0.00      
I3-93            7.53       4.17       0.00       0.00       0.00      
I4-13            11.66      0.00       0.00       0.00       0.00      
I3-99            6.68       4.59       0.00       0.00       0.00      
I4-16            11.54      0.00       0.00       0.00       0.00      
I3-100           6.58       4.78       0.00       0.00       0.00      
I4-17            11.32      0.00       0.00       0.00       0.00      
I3-101           7.00       4.16       0.00       0.00       0.00      
I4-18            11.06      1.08       0.00       0.00       0.00      
I3-102           6.30       4.80       0.00       0.00       0.00      
I4-19            11.27      0.00       0.00       0.00       0.00      
I3-94            7.16       4.44       0.00       0.00       0.00      
I4-14            11.27      0.87       0.00       0.00       0.00      
I3-95            7.00       4.57       0.00       0.00       0.00      
I3-96            6.26       5.51       0.00       0.00       0.00      
I4-15            11.35      0.00       0.00       0.00       0.00      
I3-97            7.87       3.73       0.00       0.00       0.00      
I3-98            5.98       5.36       0.00       0.00       0.00      
I3-109           6.73       5.01       0.00       0.00       0.00      
I3-104           6.90       4.65       0.00       0.00       0.00      
I3-105           7.08       4.57       0.00       0.00       0.00      
I3-106           7.27       4.51       0.00       0.00       0.00      
I4-21            11.42      0.00       0.00       0.00       0.00      
I4-22            11.31      0.00       0.00       0.00       0.00      
I3-107           7.13       4.20       0.00       0.00       0.00      
I4-23            11.54      0.00       0.00       0.00       0.00      
I3-108           7.00       4.20       0.00       0.00       0.00      
I3-103           5.90       5.34       0.00       0.00       0.00      
I4-20            11.24      0.00       0.00       0.00       0.00      
I4-26            10.61      0.00       0.00       0.00       0.00      
I3-120           5.66       5.25       0.00       0.00       0.00      
I3-119           8.64       2.46       0.00       0.00       0.00      
I3-118           7.20       4.07       0.00       0.00       0.00      
I4-25            11.31      0.00       0.00       0.00       0.00      
I3-117           5.62       5.44       0.00       0.00       0.00      
I3-116           5.81       5.46       0.00       0.00       0.00      
I3-115           6.08       5.33       0.00       0.00       0.00      
I3-114           6.78       4.59       0.00       0.00       0.00      
I3-113           7.17       3.95       0.00       0.00       0.00      
I3-112           7.76       3.32       0.00       0.00       0.00      
I3-111           8.04       3.05       0.00       0.00       0.00      
I4-24            10.74      0.00       0.00       0.00       0.00      
I3-110           8.37       2.79       0.00       0.00       0.00      
I3-126           5.34       6.11       0.00       0.00       0.00      
I4-30            11.03      0.00       0.00       0.00       0.00      
I3-125           5.30       5.88       0.00       0.00       0.00      
I4-29            11.13      0.00       0.00       0.00       0.00      
I4-28            11.20      0.00       0.00       0.00       0.00      
I3-124           8.50       2.78       0.00       0.00       0.00      
I3-123           5.30       5.94       0.00       0.00       0.00      
I3-122           5.25       6.13       0.00       0.00       0.00      
I3-121           6.06       5.59       0.00       0.00       0.00      
I4-27            11.02      0.00       0.00       0.00       0.00      
I4-33            11.09      0.00       0.00       0.00       0.00      
I3-135           5.02       6.12       0.00       0.00       0.00      
I3-134           5.02       6.36       0.00       0.00       0.00      
I3-133           5.50       5.68       0.00       0.00       0.00      
I3-132           5.70       5.60       0.00       0.00       0.00      
I3-131           5.90       5.41       0.00       0.00       0.00      
I3-130           6.10       5.22       0.00       0.00       0.00      
I4-32            11.34      0.00       0.00       0.00       0.00      
I3-129           8.43       2.77       0.00       0.00       0.00      
I3-128           4.97       6.10       0.00       0.00       0.00      
I3-127           4.97       6.22       0.00       0.00       0.00      
I4-31            10.84      0.00       0.00       0.00       0.00      
I4-34            11.14      0.00       0.00       0.00       0.00      
I3-136           4.69       6.55       0.00       0.00       0.00      
I4-36            11.29      0.00       0.00       0.00       0.00      
I3-138           4.64       6.48       0.00       0.00       0.00      
I3-137           4.59       6.18       0.00       0.00       0.00      
I4-35            11.17      0.00       0.00       0.00       0.00      
I4-37            11.55      0.00       0.00       0.00       0.00      
I3-139           4.55       6.40       0.00       0.00       0.00      
I4-38            11.10      0.00       0.00       0.00       0.00      
I3-140           4.36       7.00       0.00       0.00       0.00      
I3-143           4.32       7.01       0.00       0.00       0.00      
I3-144           4.32       6.50       0.00       0.00       0.00      
I3-141           4.75       6.89       0.00       0.00       0.00      
I3-142           5.11       6.46       0.00       0.00       0.00      
I3-147           5.44       5.94       0.00       0.00       0.00      
I3-148           5.87       5.53       0.00       0.00       0.00      
I3-145           6.23       5.21       0.00       0.00       0.00      
I3-146           6.59       4.83       0.00       0.00       0.00      
I3-150           6.95       4.30       0.00       0.00       0.00      
I3-151           7.30       3.96       0.00       0.00       0.00      
I3-149           7.75       3.41       0.00       0.00       0.00      
I4-39            11.09      0.00       0.00       0.00       0.00      
I2-319           7.88       3.17       0.00       0.00       0.00      
I2-320           8.81       2.41       0.00       0.00       0.00      
I3-152           3.97       7.45       0.00       0.00       0.00      
I3-153           3.97       6.64       0.00       0.00       0.00      
IM5-153          3.72       8.37       0.00       0.00       0.00      
J1               3.67       7.51       0.00       0.00       0.00      
IM5-152          7.29       4.22       0.00       0.00       0.00      
I2-318           7.03       4.74       0.00       0.00       0.00      
IM5-154          6.85       3.45       0.00       0.00       0.00      
I3-196           5.40       5.50       0.00       0.00       0.00      
I3-197           5.25       6.11       0.00       0.00       0.00      
I3-198           5.46       5.82       0.00       0.00       0.00      
I3-199           5.32       6.05       0.00       0.00       0.00      
I3-194           5.69       5.55       0.00       0.00       0.00      
I3-195           5.76       5.44       0.00       0.00       0.00      
I2-321           8.50       2.59       0.00       0.00       0.00      
I2-322           8.65       2.00       0.00       0.00       0.00      
I4-67            10.72      0.00       0.00       0.00       0.00      
I3-188           6.05       4.81       0.00       0.00       0.00      
I4-68            11.15      0.00       0.00       0.00       0.00      
I3-189           6.10       4.76       0.00       0.00       0.00      
I4-69            11.11      0.00       0.00       0.00       0.00      
I3-190           6.02       5.22       0.00       0.00       0.00      
I3-191           5.96       5.19       0.00       0.00       0.00      
I3-192           7.26       4.21       0.00       0.00       0.00      
I4-70            11.15      0.00       0.00       0.00       0.00      
I4-59            10.92      0.00       0.00       0.00       0.00      
I3-180           6.40       4.61       0.00       0.00       0.00      
I4-63            10.92      0.00       0.00       0.00       0.00      
I3-184           6.33       4.54       0.00       0.00       0.00      
I4-64            10.97      0.00       0.00       0.00       0.00      
I3-185           6.38       4.55       0.00       0.00       0.00      
I4-65            10.84      0.00       0.00       0.00       0.00      
I3-186           6.45       4.36       0.00       0.00       0.00      
I4-66            11.08      0.00       0.00       0.00       0.00      
I3-187           6.73       4.46       0.00       0.00       0.00      
I4-60            11.01      0.00       0.00       0.00       0.00      
I3-181           6.79       4.56       0.00       0.00       0.00      
I3-182           6.76       4.37       0.00       0.00       0.00      
I4-61            11.15      0.00       0.00       0.00       0.00      
I3-183           6.70       4.48       0.00       0.00       0.00      
I4-62            11.23      0.00       0.00       0.00       0.00      
I4-58            11.11      0.00       0.00       0.00       0.00      
I3-179           7.07       4.26       0.00       0.00       0.00      
I3-175           7.06       4.00       0.00       0.00       0.00      
I3-176           7.16       3.95       0.00       0.00       0.00      
I4-55            10.97      0.00       0.00       0.00       0.00      
I4-56            11.05      0.00       0.00       0.00       0.00      
I3-177           7.13       3.66       0.00       0.00       0.00      
I3-178           7.13       4.36       0.00       0.00       0.00      
I4-57            11.39      0.00       0.00       0.00       0.00      
I3-172           7.40       3.75       0.00       0.00       0.00      
I4-52            10.90      0.00       0.00       0.00       0.00      
I3-166           7.60       3.16       0.00       0.00       0.00      
I3-167           8.78       2.90       0.00       0.00       0.00      
I3-168           8.88       2.61       0.00       0.00       0.00      
I3-169           8.95       2.59       0.00       0.00       0.00      
I3-170           8.70       2.09       0.00       0.00       0.00      
I3-171           7.44       3.74       0.00       0.00       0.00      
I4-53            11.21      0.00       0.00       0.00       0.00      
I3-173           9.16       2.33       0.00       0.00       0.00      
I3-174           9.28       1.93       0.00       0.00       0.00      
I4-54            10.85      0.00       0.00       0.00       0.00      
I4-48            11.31      0.00       0.00       0.00       0.00      
I4-49            11.36      0.00       0.00       0.00       0.00      
I3-163           9.10       2.39       0.00       0.00       0.00      
I3-164           8.71       2.76       0.00       0.00       0.00      
I3-165           7.71       3.88       0.00       0.00       0.00      
I4-46            11.48      0.07       0.00       0.00       0.00      
I4-47            11.27      0.00       0.00       0.00       0.00      
I3-162           7.76       3.80       0.00       0.00       0.00      
I3-159           7.78       3.91       0.00       0.00       0.00      
I3-160           8.58       3.00       0.00       0.00       0.00      
I4-44            11.13      0.00       0.00       0.00       0.00      
I4-45            11.00      0.00       0.00       0.00       0.00      
I3-161           7.83       3.58       0.00       0.00       0.00      
I4-40            10.84      0.30       0.00       0.00       0.00      
I4-41            11.06      0.00       0.00       0.00       0.00      
I3-155           8.98       2.49       0.00       0.00       0.00      
I4-42            11.32      0.00       0.00       0.00       0.00      
I4-43            11.30      0.41       0.00       0.00       0.00      
I3-156           8.86       2.44       0.00       0.00       0.00      
I3-157           8.56       2.55       0.00       0.00       0.00      
I3-158           8.23       2.90       0.00       0.00       0.00      
I3-154           8.86       2.28       0.00       0.00       0.00      
I3-193           5.62       5.57       0.00       0.00       0.00      
I4-50            11.04      0.61       0.00       0.00       0.00      
IM5-49           1.30       3.42       0.00       0.00       0.00      

[OUTFALLS]
;;               Invert     Outfall      Stage/Table       Tide
;;Name           Elev.      Type         Time Series       Gate
;;-------------- ---------- ------------ ----------------  ----
OUT5             1.61       FREE                           NO              
OUT6             1.03       FREE                           NO              
OUT7             0.30       FREE                           NO              
OUT8             3.02       FREE                           NO              
OUT9             3.55       FREE                           NO              
OUT40            3.41       FREE                           NO              
OUT41            4.39       FREE                           NO              
OUT42            3.41       FREE                           NO              
OUT43            3.41       FREE                           NO              
OUT4             -0.60      FREE                           NO              

[CONDUITS]
;;               Inlet            Outlet                      Manning    Inlet      Outlet     Init.      Max.
;;Name           Node             Node             Length     N          Offset     Offset     Flow       Flow
;;-------------- ---------------- ---------------- ---------- ---------- ---------- ---------- ---------- ----------
C127             I2-87            IM5-46           95.49      0.012      0.00       0.00       0.00       0.00      
C128             I2-88            I2-87            113.23     0.012      0.00       0.00       0.00       0.00      
C129             I2-90            I2-87            117.47     0.012      0.00       0.00       0.00       0.00      
C130             I2-89            I2-90            114.13     0.012      0.00       0.00       0.00       0.00      
C131             I2-91            I2-90            223.29     0.012      0.00       0.00       0.00       0.00      
C132             I2-92            I2-91            102.11     0.012      0.00       0.00       0.00       0.00      
C133             I2-93            I2-91            162.13     0.012      0.00       0.00       0.00       0.00      
C134             I2-94            I2-93            230.02     0.012      0.00       0.00       0.00       0.00      
C135             I2-86            IM5-46           75.83      0.012      0.00       0.00       0.00       0.00      
C136             I2-85            I2-86            404.19     0.012      0.00       0.00       0.00       0.00      
C137             I2-84            I2-85            120.12     0.012      0.00       0.00       0.00       0.00      
C138             I2-82            I2-85            310.85     0.012      0.00       0.00       0.00       0.00      
C139             I2-83            I2-82            122.22     0.012      0.00       0.00       0.00       0.00      
C140             I2-80            I2-82            180.68     0.012      0.00       0.00       0.00       0.00      
C141             I2-81            I2-80            121.99     0.012      0.00       0.00       0.00       0.00      
C142             I2-78            I2-80            262.02     0.012      0.00       0.00       0.00       0.00      
C143             I2-79            I2-78            122.52     0.012      0.00       0.00       0.00       0.00      
C144             I2-77            I2-78            230.78     0.012      0.00       0.00       0.00       0.00      
C145             I2-75            I2-77            161.34     0.012      0.00       0.00       0.00       0.00      
C146             I2-76            I2-75            122.37     0.012      0.00       0.00       0.00       0.00      
C147             I2-73            I2-75            177.64     0.012      0.00       0.00       0.00       0.00      
C148             I2-74            I2-73            132.78     0.012      0.00       0.00       0.00       0.00      
C149             I3-16            I2-73            186.57     0.012      0.00       0.00       0.00       0.00      
C150             I2-71            I3-16            130.48     0.012      0.00       0.00       0.00       0.00      
C151             I2-72            I2-71            133.25     0.012      0.00       0.00       0.00       0.00      
C152             I3-15            I2-72            20.00      0.012      0.00       0.00       0.00       0.00      
C153             I2-70            I2-71            390.91     0.012      0.00       0.00       0.00       0.00      
C154             I3-14            I2-70            20.00      0.012      0.00       0.00       0.00       0.00      
C155             IM5-45           I2-70            93.49      0.012      0.00       0.00       0.00       0.00      
C156             I2-68            IM5-45           185.00     0.012      0.00       0.00       0.00       0.00      
C157             I2-69            I2-68            121.16     0.012      0.00       0.00       0.00       0.00      
C158             IM5-44           I2-68            177.64     0.012      0.00       0.00       0.00       0.00      
C159             I2-814           I2-67            20.00      0.012      0.00       0.00       0.00       0.00      
C160             I2-67            IM5-44           148.71     0.012      0.00       0.00       0.00       0.00      
C161             I2-65            IM5-44           250.98     0.012      0.00       0.00       0.00       0.00      
C162             I2-66            I2-65            121.00     0.012      0.00       0.00       0.00       0.00      
C163             IM5-43           I2-65            79.48      0.012      0.00       0.00       0.00       0.00      
C164             I2-63            I2-64            20.00      0.012      0.00       0.00       0.00       0.00      
C165             I2-64            IM5-43           37.52      0.012      0.00       0.00       0.00       0.00      
C166             I2-62            IM5-43           78.53      0.012      0.00       0.00       0.00       0.00      
C167             I2-96            I2-97            117.42     0.012      0.00       0.00       0.00       0.00      
C168             I2-97            I3-17            25.80      0.012      0.00       0.00       0.00       0.00      
C169             I3-17            IM5-50           258.47     0.012      0.00       0.00       0.00       0.00      
C170             I2-100           IM5-50           20.00      0.012      0.00       0.00       0.00       0.00      
C171             IM5-50           IM5-51           168.74     0.012      0.00       0.00       0.00       0.00      
C172             I2-102           I2-101           146.80     0.012      0.00       0.00       0.00       0.00      
C173             I2-101           IM5-51           20.00      0.012      0.00       0.00       0.00       0.00      
C174             IM5-51           IM5-52           209.38     0.012      0.00       0.00       0.00       0.00      
C175             I2-103           I2-815           111.35     0.012      0.00       0.00       0.00       0.00      
C176             I2-815           IM5-52           20.00      0.012      0.00       0.00       0.00       0.00      
C177             IM5-52           I2-104           198.64     0.012      0.00       0.00       0.00       0.00      
C178             I2-104           I2-105           178.12     0.012      0.00       0.00       0.00       0.00      
C179             I2-105           IM5-460          262.01     0.012      0.00       0.00       0.00       0.00      
C180             I2-106           I2-107           271.90     0.012      0.00       0.00       0.00       0.00      
C181             I2-107           I2-108           111.08     0.012      0.00       0.00       0.00       0.00      
C182             I2-108           IM5-460          20.00      0.012      0.00       0.00       0.00       0.00      
C183             IM5-460          IM5-150          292.00     0.012      0.00       0.00       0.00       0.00      
C184             IM5-150          IM5-53           171.28     0.012      0.00       0.00       0.00       0.00      
C185             I2-109           IM5-53           20.00      0.012      0.00       0.00       0.00       0.00      
C186             IM5-53           IM5-57           168.98     0.012      0.00       0.00       0.00       0.00      
C187             I2-110           IM5-54           43.20      0.012      0.00       0.00       0.00       0.00      
C188             IM5-54           IM5-55           137.37     0.012      0.00       0.00       0.00       0.00      