[TITLE]
INP file created by FLO-2D

[OPTIONS]
FLOW_UNITS           CFS
INFILTRATION         HORTON
FLOW_ROUTING         DYNWAVE
START_DATE           06/28/2025
START_TIME           00:00:00
REPORT_START_DATE    06/28/2025
REPORT_START_TIME    00:00:00
END_DATE             06/28/2025
END_TIME             10:00:00
SWEEP_START          01/01
SWEEP_END            12/31
DRY_DAYS             0
REPORT_STEP          00:06:00
WET_STEP             00:05:00
DRY_STEP             01:00:00
ROUTING_STEP         00:01:00
ALLOW_PONDING        NO
INERTIAL_DAMPING     PARTIAL
VARIABLE_STEP        0.75
LENGTHENING_STEP     0
MIN_SURFAREA         0
NORMAL_FLOW_LIMITED  BOTH
SKIP_STEADY_STATE    NO
FORCE_MAIN_EQUATION  H-W
LINK_OFFSETS         DEPTH
MIN_SLOPE            0.01

[JUNCTIONS]
;;               Invert     Max.       Init.      Surcharge  Ponded
;;Name           Elev.      Depth      Depth      Depth      Area
;;-------------- ---------- ---------- ---------- ---------- ----------
I1-36-32-14      1424.77    4.20       0.00       0.00       0.00      
I1-36-32-15      1419.75    7.40       0.00       0.00       0.00      
I1-37-32-33-1    1433.10    7.00       0.00       0.00       0.00      
I1-37-32-37      1422.86    5.10       0.00       0.00       0.00      
I1-37-32-38      1423.86    4.20       0.00       0.00       0.00      
I1-37-32-55      1437.81    3.90       0.00       0.00       0.00      
I1-37-32-56      1437.22    4.10       0.00       0.00       0.00      
I1-38-32-42      1434.80    4.20       0.00       0.00       0.00      
I2-37-32-54      1436.65    4.00       0.00       0.00       0.00      
I2-38-32-41      1435.52    3.90       0.00       0.00       0.00      
I3-37-32-48      1417.00    4.10       0.00       0.00       0.00      
I3-37-32-49      1416.26    7.30       0.00       0.00       0.00      
I3-37-32-50      1415.69    6.10       0.00       0.00       0.00      
I3-37-32-51      1417.00    4.60       0.00       0.00       0.00      
I3-37-32-52      1417.00    4.00       0.00       0.00       0.00      
I3-38-32-37      1430.50    4.90       0.00       0.00       0.00      
I4-37-32-41      1427.40    1.00       0.00       0.00       0.00      
I4-37-32-45      1427.32    1.00       0.00       0.00       0.00      
I4-37-32-46      1427.09    1.00       0.00       0.00       0.00      
I5-37-32-27      1413.85    8.60       0.00       0.00       0.00      
I5-37-32-28      1415.30    7.10       0.00       0.00       0.00      
I5-37-32-29      1409.95    18.00      0.00       0.00       0.00      
I5-37-32-30      1412.24    17.00      0.00       0.00       0.00      
I5-37-32-33      1431.90    4.30       0.00       0.00       0.00      
I5-37-32-34      1414.43    9.40       0.00       0.00       0.00      
I5-37-32-36      1410.59    17.00      0.00       0.00       0.00      
J1-37-32-1       1414.18    8.40       0.00       0.00       0.00      
J1-37-32-2       1414.16    8.30       0.00       0.00       0.00      
J1-37-32-29-A    1410.27    18.00      0.00       0.00       0.00      
J1-37-32-29-B    1410.24    18.00      0.00       0.00       0.00      
J1-37-32-3       1413.70    8.70       0.00       0.00       0.00      
J1-37-32-6-A     1413.83    8.50       0.00       0.00       0.00      
J1-37-32-61      1414.62    10.00      0.00       0.00       0.00      
J1-37-32-61-A    1414.99    21.00      0.00       0.00       0.00      
J1-37-32-62      1414.62    7.30       0.00       0.00       0.00      
J1-38-32-14      1416.54    10.00      0.00       0.00       0.00      

[CONDUITS]
;;               Inlet            Outlet                      Manning    Inlet      Outlet     Init.      Max.
;;Name           Node             Node             Length     N          Offset     Offset     Flow       Flow
;;-------------- ---------------- ---------------- ---------- ---------- ---------- ---------- ---------- ----------
P-I1-36-32-14    I1-36-32-14      I5-37-32-30      52.01      0.013      0.00       0.00       0.00       1.20      
P-I1-36-32-15    I1-36-32-15      I5-37-32-36      53.01      0.013      0.00       0.00       0.00       1.20      
P-I1-37-32-33-1  I1-37-32-33-1    I5-37-32-33      57.74      0.013      0.00       0.00       0.00       1.50      
P-I1-37-32-37    I1-37-32-37      J1-37-32-29-A    66.01      0.013      0.00       0.00       0.00       1.20      
P-I1-37-32-38    I1-37-32-38      I1-37-32-37      32.00      0.013      0.00       0.00       0.00       1.20      
P-I1-37-32-41    I4-37-32-41      J1-37-32-29-B    45.00      0.013      0.00       0.00       0.00       1.20      
P-I1-37-32-45    I4-37-32-45      I5-37-32-30      44.01      0.013      0.00       0.00       0.00       1.20      
P-I1-37-32-54    I2-37-32-54      I3-37-32-49      133.01     0.013      0.00       0.00       0.00       1.50      
P-I1-37-32-55    I1-37-32-55      I1-37-32-56      36.02      0.013      0.00       0.00       0.00       1.50      
P-I1-37-32-56    I1-37-32-56      J1-37-32-61-A    70.00      0.013      0.00       0.00       0.00       1.50      
P-I1-38-32-41    I2-38-32-41      I1-38-32-42      29.00      0.013      0.00       0.00       0.00       1.50      
P-I1-38-32-42    I1-38-32-42      I1-37-32-33-1    61.27      0.013      0.00       0.00       0.00       1.50      
P-I3-37-32-46    I4-37-32-46      I5-37-32-36      52.01      0.013      0.00       0.00       0.00       1.20      
P-I3-37-32-48    I3-37-32-48      J1-37-32-6-A     117.51     0.013      0.00       0.00       0.00       1.50      
P-I3-37-32-49    I3-37-32-49      I3-37-32-50      299.63     0.013      0.00       0.00       0.00       1.50      
P-I3-37-32-50    I3-37-32-50      J1-37-32-1       252.03     0.013      0.00       0.00       0.00       1.50      
P-I3-37-32-51    I3-37-32-51      J1-37-32-2       135.01     0.013      0.00       0.00       0.00       1.50      
P-I3-37-32-52    I3-37-32-52      I5-37-32-28      208.02     0.013      0.00       0.00       0.00       1.50      
P-I3-38-32-37    I3-38-32-37      J1-38-32-14      236.16     0.013      0.00       0.00       0.00       1.50      
P-I5-37-32-27a   I5-37-32-27      J1-37-32-3       50.75      0.013      0.00       0.00       0.00       4.50      
P-I5-37-32-27b   I5-37-32-27      J1-37-32-6-A     23.50      0.013      0.00       0.00       0.00       4.50      
P-I5-37-32-28    I5-37-32-28      J1-37-32-3       162.62     0.013      0.00       0.00       0.00       1.50      
P-I5-37-32-30    I5-37-32-30      I5-37-32-36      435.04     0.013      0.00       0.00       0.00       5.00      
P-I5-37-32-33    I5-37-32-33      I3-37-32-51      140.01     0.013      0.00       0.00       0.00       1.50      
P-I5-37-32-34a   I5-37-32-34      J1-37-32-2       238.44     0.013      0.00       0.00       0.00       4.50      
P-I5-37-32-34b   I5-37-32-34      J1-37-32-1       220.49     0.013      0.00       0.00       0.00       4.50      
P-I5-37-32-36    I5-37-32-36      J1-37-32-29-A    295.08     0.013      0.00       0.00       0.00       6.00      
P-I5-38-32-14a   J1-38-32-14      J1-37-32-61-A    203.72     0.013      0.00       0.00       0.00       4.50      
P-I5-38-32-14b   J1-38-32-14      J1-37-32-62      302.41     0.013      0.00       0.00       0.00       4.50      
P-J1-37-32-1     J1-37-32-1       I5-37-32-27      313.67     0.013      0.00       0.00       0.00       4.50      
P-J1-37-32-2     J1-37-32-2       I5-37-32-27      295.07     0.013      0.00       0.00       0.00       4.50      
P-J1-37-32-29-A  J1-37-32-29-A    J1-37-32-29-B    23.75      0.013      0.00       0.00       0.00       6.00      
P-J1-37-32-29-B  J1-37-32-29-B    I5-37-32-29      179.72     0.013      0.00       0.00       0.00       6.00      
P-J1-37-32-61    J1-37-32-61      I5-37-32-34      164.47     0.013      0.00       0.00       0.00       4.50      
P-J1-37-32-61-A  J1-37-32-61-A    J1-37-32-61      97.04      0.013      0.00       0.00       0.00       4.50      
P-J1-37-32-62    J1-37-32-62      I5-37-32-34      170.62     0.013      0.00       0.00       0.00       4.50      

[XSECTIONS]
;;Link           Shape        Geom1      Geom2      Geom3      Geom4      Barrels
;;-------------- ------------ ---------- ---------- ---------- ---------- ----------
P-I1-36-32-14    CIRCULAR      1.20       0.00       0.000      0.00       1         
P-I1-36-32-15    CIRCULAR      1.20       0.00       0.000      0.00       1         
P-I1-37-32-33-1  CIRCULAR      1.50       0.00       0.000      0.00       1         
P-I1-37-32-37    CIRCULAR      1.20       0.00       0.000      0.00       1         
P-I1-37-32-38    CIRCULAR      1.20       0.00       0.000      0.00       1         
P-I1-37-32-41    CIRCULAR      1.20       0.00       0.000      0.00       1         
P-I1-37-32-45    CIRCULAR      1.20       0.00       0.000      0.00       1         
P-I1-37-32-54    CIRCULAR      1.50       0.00       0.000      0.00       1         
P-I1-37-32-55    CIRCULAR      1.50       0.00       0.000      0.00       1         
P-I1-37-32-56    CIRCULAR      1.50       0.00       0.000      0.00       1         
P-I1-38-32-41    CIRCULAR      1.50       0.00       0.000      0.00       1         
P-I1-38-32-42    CIRCULAR      1.50       0.00       0.000      0.00       1         
P-I3-37-32-46    CIRCULAR      1.20       0.00       0.000      0.00       1         
P-I3-37-32-48    CIRCULAR      1.50       0.00       0.000      0.00       1         
P-I3-37-32-49    CIRCULAR      1.50       0.00       0.000      0.00       1         
P-I3-37-32-50    CIRCULAR      1.50       0.00       0.000      0.00       1         
P-I3-37-32-51    CIRCULAR      1.50       0.00       0.000      0.00       1         
P-I3-37-32-52    CIRCULAR      1.50       0.00       0.000      0.00       1         
P-I3-38-32-37    CIRCULAR      1.50       0.00       0.000      0.00       1         
P-I5-37-32-27a   CIRCULAR      4.50       0.00       0.000      0.00       1         
P-I5-37-32-27b   CIRCULAR      4.50       0.00       0.000      0.00       1         
P-I5-37-32-28    CIRCULAR      1.50       0.00       0.000      0.00       1         
P-I5-37-32-30    CIRCULAR      5.00       0.00       0.000      0.00       1         
P-I5-37-32-33    CIRCULAR      1.50       0.00       0.000      0.00       1         
P-I5-37-32-34a   CIRCULAR      4.50       0.00       0.000      0.00       1         
P-I5-37-32-34b   CIRCULAR      4.50       0.00       0.000      0.00       1         
P-I5-37-32-36    CIRCULAR      6.00       0.00       0.000      0.00       1         
P-I5-38-32-14a   CIRCULAR      4.50       0.00       0.000      0.00       1         
P-I5-38-32-14b   CIRCULAR      4.50       0.00       0.000      0.00       1         
P-J1-37-32-1     CIRCULAR      4.50       0.00       0.000      0.00       1         
P-J1-37-32-2     CIRCULAR      4.50       0.00       0.000      0.00       1         
P-J1-37-32-29-A  CIRCULAR      6.00       0.00       0.000      0.00       1         
P-J1-37-32-29-B  CIRCULAR      6.00       0.00       0.000      0.00       1         
P-J1-37-32-61    CIRCULAR      4.50       0.00       0.000      0.00       1         
P-J1-37-32-61-A  CIRCULAR      4.50       0.00       0.000      0.00       1         
P-J1-37-32-62    CIRCULAR      4.50       0.00       0.000      0.00       1         

[LOSSES]
;;Link           Inlet      Outlet     Average    Flap Gate
;;-------------- ---------- ---------- ---------- ----------
P-I1-36-32-14    0.0        0.0        0.00       NO        
P-I1-36-32-15    0.0        0.0        0.00       NO        
P-I1-37-32-33-1  0.0        0.0        0.00       NO        
P-I1-37-32-37    0.0        0.0        0.00       NO        
P-I1-37-32-38    0.0        0.0        0.00       NO        
P-I1-37-32-41    0.0        0.0        0.00       NO        
P-I1-37-32-45    0.0        0.0        0.00       NO        
P-I1-37-32-54    0.0        0.0        0.00       NO        
P-I1-37-32-55    0.0        0.0        0.00       NO        
P-I1-37-32-56    0.0        0.0        0.00       NO        
P-I1-38-32-41    0.0        0.0        0.00       NO        
P-I1-38-32-42    0.0        0.0        0.00       NO        
P-I3-37-32-46    0.0        0.0        0.00       NO        
P-I3-37-32-48    0.0        0.0        0.00       NO        
P-I3-37-32-49    0.0        0.0        0.00       NO        
P-I3-37-32-50    0.0        0.0        0.00       NO        
P-I3-37-32-51    0.0        0.0        0.00       NO        
P-I3-37-32-52    0.0        0.0        0.00       NO        
P-I3-38-32-37    0.0        0.0        0.00       NO        
P-I5-37-32-27a   0.0        0.0        0.00       NO        
P-I5-37-32-27b   0.0        0.0        0.00       NO        
P-I5-37-32-28    0.0        0.0        0.00       NO        
P-I5-37-32-30    0.0        0.0        0.00       NO        
P-I5-37-32-33    0.0        0.0        0.00       NO        
P-I5-37-32-34a   0.0        0.0        0.00       NO        
P-I5-37-32-34b   0.0        0.0        0.00       NO        
P-I5-37-32-36    0.0        0.0        0.00       NO        
P-I5-38-32-14a   0.0        0.0        0.00       NO        
P-I5-38-32-14b   0.0        0.0        0.00       NO        
P-J1-37-32-1     0.0        0.0        0.00       NO        
P-J1-37-32-2     0.0        0.0        0.00       NO        
P-J1-37-32-29-A  0.0        0.0        0.00       NO        
P-J1-37-32-29-B  0.0        0.0        0.00       NO        
P-J1-37-32-61    0.0        0.0        0.00       NO        
P-J1-37-32-61-A  0.0        0.0        0.00       NO        
P-J1-37-32-62    0.0        0.0        0.00       NO        

[CONTROLS]



[TIMESERIES]
;;Name           Date       Time       Value     
;;-------------- ---------- ---------- ----------

[PATTERNS]
;;Name           Type       Multipliers
;;-------------- ---------- -----------

[REPORT]
INPUT           YES
CONTROLS        YES
SUBCATCHMENTS   NONE
NODES           ALL
LINKS           ALL

[COORDINATES]
;;Node           X-Coord            Y-Coord 
;;-------------- ------------------ ------------------
I1-36-32-14      663986.55668       960539.805734     
I1-36-32-15      663551.577295      960535.550073     
I1-37-32-33-1    663301.645249      963202.864702     
I1-37-32-37      663255.645702      960652.338593     
I1-37-32-38      663287.64465       960652.5781       
I1-37-32-55      663708.02714       963201.713646     
I1-37-32-56      663730.414075      963173.504025     
I1-38-32-42      663289.147222      963262.842829     
I2-37-32-54      663912.379287      962567.500903     
I2-38-32-41      663260.496361      963267.329367     
I3-37-32-48      663152.513382      962648.669948     
I3-37-32-49      663809.658282      962651.983725     
I3-37-32-50      663510.059193      962651.728744     
I3-37-32-51      663342.118528      963009.317867     
I3-37-32-52      662939.021889      963072.268502     
I3-38-32-37      663623.706102      963353.134459     
I4-37-32-41      663221.456828      960640.916098     
I4-37-32-45      664001.673372      960651.824203     
I4-37-32-46      663550.791414      960640.547        
I5-37-32-27      663125.617961      962768.846314     
I5-37-32-28      663076.390536      962916.083669     
I5-37-32-29      663052.695752      960584.817959     
I5-37-32-30      663986.167513      960591.804034     
I5-37-32-33      663313.422566      963146.345264     
I5-37-32-34      663616.329917      962973.053528     
I5-37-32-36      663551.180581      960588.5487       
J1-37-32-1       663415.732028      962885.408575     
J1-37-32-2       663395.970588      962885.524057     
J1-37-32-29-A    663256.139544      960586.340637     
J1-37-32-29-B    663232.39025       960586.162811     
J1-37-32-3       663078.276545      962753.494616     
J1-37-32-6-A     663106.995967      962756.995602     
J1-37-32-61      663750.586412      963063.215854     
J1-37-32-61-A    663795.73943       963148.36734      
J1-37-32-62      663757.816714      963060.538693     
J1-38-32-14      663859.56553       963341.77019      

[VERTICES]
;;Link           X-Coord            Y-Coord           
;;-------------- ------------------ ------------------
P-I5-37-32-27a   663120.5457915473  962770.2698681481 
P-I5-37-32-27b   663122.4539327918  962762.509378725  
P-I5-37-32-34a   663610.876514994   962974.7644832702 
P-I5-37-32-34b   663614.9234292208  962968.7123256561 
P-I5-38-32-14a   663853.7423771516  963327.6004139918 
P-I5-38-32-14b   663861.2148040346  963325.7093415456 
P-I5-38-32-14b   663797.5360366508  963128.9359321077 
P-I5-38-32-14b   663787.8392330224  963106.7371366988 
P-I5-38-32-14b   663772.6752542924  963080.5357200851 
P-I5-38-32-14b   663758.2579852805  963061.0688759736 
P-J1-37-32-1     663135.6704330121  962768.275778984  
P-J1-37-32-2     663132.3239755933  962775.221308417  
P-J1-37-32-61    663728.1924586206  963039.5564273844 
P-J1-37-32-61    663707.1577473863  963022.2342645209 
P-J1-37-32-61    663671.6243849993  963000.5252927354 
P-J1-37-32-61    663618.53725601    962977.8163185851 
P-J1-37-32-61-A  663790.3250911708  963131.6367149692 
P-J1-37-32-61-A  663780.6286156233  963109.4379195486 
P-J1-37-32-61-A  663767.127031921   963085.7686526192 
P-J1-37-32-61-A  663751.0470398007  963063.7696588396 
P-J1-37-32-62    663733.3519020843  963034.5108305248 
P-J1-37-32-62    663712.5360227035  963016.9265289003 
P-J1-37-32-62    663674.5705810541  962993.4111282529 
P-J1-37-32-62    663622.1825968567  962971.2923766538 