[TITLE]
INP file created by FLO-2D

[OPTIONS]
FLOW_UNITS           CFS
INFILTRATION         HORTON
FLOW_ROUTING         DYNWAVE
START_DATE           06/28/2025
START_TIME           00:00:00
REPORT_START_DATE    06/28/2025
REPORT_START_TIME    00:00:00
END_DATE             06/28/2025
END_TIME             10:00:00
SWEEP_START          01/01
SWEEP_END            12/31
DRY_DAYS             0
REPORT_STEP          00:06:00
WET_STEP             00:05:00
DRY_STEP             01:00:00
ROUTING_STEP         00:01:00
ALLOW_PONDING        NO
INERTIAL_DAMPING     PARTIAL
VARIABLE_STEP        0.75
LENGTHENING_STEP     0
MIN_SURFAREA         0
NORMAL_FLOW_LIMITED  BOTH
SKIP_STEADY_STATE    NO
FORCE_MAIN_EQUATION  H-W
LINK_OFFSETS         DEPTH
MIN_SLOPE            0.01

[JUNCTIONS]
;;               Invert     Max.       Init.      Surcharge  Ponded
;;Name           Elev.      Depth      Depth      Depth      Area
;;-------------- ---------- ---------- ---------- ---------- ----------
I1-36-30-36      1401.93    4.50       0.00       0.00       0.00      
I1-36-30-44      1402.20    3.80       0.00       0.00       0.00      
I1-36-30-45      1404.50    3.50       0.00       0.00       0.00      
I1-36-31-34      1404.00    4.80       0.00       0.00       0.00      
I1-36-31-35      1404.60    3.80       0.00       0.00       0.00      
I1-36-31-40      1402.60    3.60       0.00       0.00       0.00      
I1-36-31-41      1402.30    4.00       0.00       0.00       0.00      
I1-36-31-42      1402.60    4.00       0.00       0.00       0.00      
I1-36-31-43      1403.90    3.50       0.00       0.00       0.00      
I1-36-31-44      1400.20    3.20       0.00       0.00       0.00      
I1-36-31-45      1400.70    4.20       0.00       0.00       0.00      
I1-37-30-18      1407.00    5.90       0.00       0.00       0.00      
I1-37-30-19      1400.13    10.00      0.00       0.00       0.00      
I1-37-30-20      1399.38    8.00       0.00       0.00       0.00      
I1-37-30-21      1398.51    9.30       0.00       0.00       0.00      
I1-37-30-22      1411.95    4.40       0.00       0.00       0.00      
I1-37-30-23      1411.07    4.30       0.00       0.00       0.00      
I1-37-31-13      1409.60    3.10       0.00       0.00       0.00      
I1-37-31-16      1400.14    11.00      0.00       0.00       0.00      
I1-37-31-26      1411.95    4.70       0.00       0.00       0.00      
I1-37-31-27      1408.80    10.00      0.00       0.00       0.00      
I1-37-31-29      1411.68    4.30       0.00       0.00       0.00      
I1-37-31-30      1411.90    4.20       0.00       0.00       0.00      
I1-38-30-12      1415.77    4.10       0.00       0.00       0.00      
I1-38-30-13      1420.55    4.80       0.00       0.00       0.00      
I1-38-30-14      1414.65    4.20       0.00       0.00       0.00      
I1-38-31-31      1413.98    5.30       0.00       0.00       0.00      
I2-36-30-46      1397.40    5.00       0.00       0.00       0.00      
I2-36-30-47      1398.90    3.70       0.00       0.00       0.00      
I2-36-30-49      1395.10    5.50       0.00       0.00       0.00      
I2-36-30-50      1396.30    4.00       0.00       0.00       0.00      
I2-36-30-71      1397.00    2.20       0.00       0.00       0.00      
I2-36-31-30      1406.22    5.20       0.00       0.00       0.00      
I2-37-31-17      1405.53    6.50       0.00       0.00       0.00      
I3-37-31-15      1400.60    11.00      0.00       0.00       0.00      
I3-37-31-28      1411.79    3.70       0.00       0.00       0.00      
I5-36-30-27      1387.42    19.00      0.00       0.00       0.00      
I5-36-30-28      1386.63    17.00      0.00       0.00       0.00      
I5-36-30-30      1391.79    18.00      0.00       0.00       0.00      
I5-36-30-31      1386.48    16.00      0.00       0.00       0.00      
I5-36-30-32      1388.69    19.00      0.00       0.00       0.00      
I5-37-30-10      1398.00    8.70       0.00       0.00       0.00      
I5-37-30-12      1406.29    12.00      0.00       0.00       0.00      
I5-37-30-314     1403.40    12.00      0.00       0.00       0.00      
I5-37-30-8       1396.11    16.00      0.00       0.00       0.00      
I5-37-30-9       1396.00    12.00      0.00       0.00       0.00      
I5-37-31-12      1397.38    16.00      0.00       0.00       0.00      
I5-38-30-5       1420.55    5.10       0.00       0.00       0.00      
I5-38-30-6       1408.09    11.00      0.00       0.00       0.00      
J1-36-30-27-A    1388.57    19.00      0.00       0.00       0.00      
J1-36-30-27-B    1388.07    19.00      0.00       0.00       0.00      
J1-36-30-27-C    1387.50    19.00      0.00       0.00       0.00      
J1-36-30-28-A    1387.30    19.00      0.00       0.00       0.00      
J1-36-30-28-B    1387.20    19.00      0.00       0.00       0.00      
J1-36-30-28-C    1387.12    19.00      0.00       0.00       0.00      
J1-36-30-29-A    1395.80    4.20       0.00       0.00       0.00      
J1-36-30-32-A    1388.98    19.00      0.00       0.00       0.00      
J1-36-30-32-B    1388.81    19.00      0.00       0.00       0.00      
J1-37-30-17-B    1395.19    16.00      0.00       0.00       0.00      
J1-37-30-2-B     1401.48    14.00      0.00       0.00       0.00      
J1-37-30-29      1394.70    17.00      0.00       0.00       0.00      
J1-37-30-3-A     1405.06    11.00      0.00       0.00       0.00      
J1-37-30-3-C     1403.88    12.00      0.00       0.00       0.00      
J1-37-30-31      1393.99    17.00      0.00       0.00       0.00      
J1-37-30-31-A    1394.62    17.00      0.00       0.00       0.00      
J1-37-30-31-B    1394.60    17.00      0.00       0.00       0.00      
J1-37-30-31-D    1394.13    17.00      0.00       0.00       0.00      
J1-37-30-9-A     1397.13    10.00      0.00       0.00       0.00      
J1-37-31-32      1401.45    14.00      0.00       0.00       0.00      
J1-38-30-5       1411.02    14.00      0.00       0.00       0.00      
J1-38-30-6-A     1409.93    10.00      0.00       0.00       0.00      
J5-37-30-2       1400.66    14.00      0.00       0.00       0.00      

[OUTFALLS]
;;               Invert     Outfall      Stage/Table       Tide
;;Name           Elev.      Type         Time Series       Gate
;;-------------- ---------- ------------ ----------------  ----
O-36-30-10       1386.60    FREE                           NO              
O-36-30-11       1383.80    FREE                           NO              
O-36-30-21-A     1387.19    FREE                           NO              
O-36-30-67       1385.50    FREE                           NO              
O-36-30-96       1385.50    FREE                           NO              

[CONDUITS]
;;               Inlet            Outlet                      Manning    Inlet      Outlet     Init.      Max.
;;Name           Node             Node             Length     N          Offset     Offset     Flow       Flow
;;-------------- ---------------- ---------------- ---------- ---------- ---------- ---------- ---------- ----------
P-I1-36-30-36    I1-36-30-36      I5-37-30-10      50.01      0.013      0.00       0.00       0.00       1.20      
P-I1-36-30-44    I1-36-30-44      J1-36-30-28-B    46.51      0.013      0.00       0.00       0.00       1.20      
P-I1-36-30-45    I1-36-30-45      J1-36-30-27-A    47.00      0.013      0.00       0.00       0.00       1.20      
P-I1-36-31-34    I1-36-31-34      J1-36-30-32-A    16.00      0.013      0.00       0.00       0.00       1.20      
P-I1-36-31-35    I1-36-31-35      J1-36-30-32-B    12.00      0.013      0.00       0.00       0.00       1.20      
P-I1-36-31-40    I1-36-31-40      J1-36-30-28-C    11.00      0.013      0.00       0.00       0.00       1.20      
P-I1-36-31-41    I1-36-31-41      J1-36-30-28-A    56.01      0.013      0.00       0.00       0.00       1.20      
P-I1-36-31-42    I1-36-31-42      J1-36-30-27-C    12.00      0.013      0.00       0.00       0.00       1.20      
P-I1-36-31-43    I1-36-31-43      J1-36-30-27-B    12.00      0.013      0.00       0.00       0.00       1.00      
P-I1-36-31-44    I1-36-31-44      O-36-30-21-A     126.89     0.013      0.00       0.00       0.00       1.20      
P-I1-36-31-45    I1-36-31-45      I1-36-31-44      47.76      0.013      0.00       0.00       0.00       1.20      
P-I1-37-30-18    I1-37-30-18      I5-37-30-8       25.00      0.013      0.00       0.00       0.00       1.20      
P-I1-37-30-19    I1-37-30-19      J1-37-30-31-D    27.00      0.013      0.00       0.00       0.00       1.20      
P-I1-37-30-20    I1-37-30-20      I5-37-30-10      42.00      0.013      0.00       0.00       0.00       1.20      
P-I1-37-30-21    I1-37-30-21      J1-37-30-9-A     42.00      0.013      0.00       0.00       0.00       1.20      
P-I1-37-30-22    I1-37-30-22      J1-37-30-3-C     23.50      0.013      0.00       0.00       0.00       1.20      
P-I1-37-30-23    I1-37-30-23      J5-37-30-2       25.30      0.013      0.00       0.00       0.00       1.20      
P-I1-37-31-13    I1-37-31-13      I5-37-30-8       37.00      0.013      0.00       0.00       0.00       1.20      
P-I1-37-31-16    I1-37-31-16      J1-37-30-31-D    37.28      0.013      0.00       0.00       0.00       1.20      
P-I1-37-31-26    I1-37-31-26      J1-37-30-3-C     43.00      0.013      0.00       0.00       0.00       1.50      
P-I1-37-31-27    I1-37-31-27      I5-37-30-12      73.01      0.013      0.00       0.00       0.00       1.20      
P-I1-37-31-29    I1-37-31-29      J1-37-30-2-B     38.59      0.013      0.00       0.00       0.00       1.20      
P-I1-37-31-30    I1-37-31-30      J1-37-30-2-B     22.89      0.013      0.00       0.00       0.00       1.20      
P-I1-38-30-12    I1-38-30-12      J1-38-30-6-A     27.90      0.013      0.00       0.00       0.00       1.20      
P-I1-38-30-13    I1-38-30-13      J1-38-30-5       15.45      0.013      0.00       0.00       0.00       1.20      
P-I1-38-30-14    I1-38-30-14      I5-38-30-6       27.80      0.013      0.00       0.00       0.00       1.20      
P-I1-38-31-31    I1-38-31-31      I1-37-31-27      45.00      0.013      0.00       0.00       0.00       1.20      
P-I2-36-30-46    I2-36-30-46      O-36-30-10       85.77      0.013      0.00       0.00       0.00       1.20      
P-I2-36-30-47    I2-36-30-47      I2-36-30-46      95.01      0.013      0.00       0.00       0.00       1.20      
P-I2-36-30-49    I2-36-30-49      O-36-30-11       73.39      0.013      0.00       0.00       0.00       1.20      
P-I2-36-30-50    I2-36-30-50      J1-36-30-29-A    34.00      0.013      0.00       0.00       0.00       1.20      
P-I2-36-30-71    I2-36-30-71      J1-36-30-29-A    175.51     0.013      0.00       0.00       0.00       1.50      
P-I2-36-31-30    I2-36-31-30      J1-37-30-17-B    75.36      0.013      0.00       0.00       0.00       1.20      
P-I2-37-31-17    I2-37-31-17      J1-37-30-17-B    47.01      0.013      0.00       0.00       0.00       1.20      
P-I3-37-31-28    I3-37-31-28      J1-37-31-32      29.00      0.013      0.00       0.00       0.00       1.20      
P-I4-37-31-15    I3-37-31-15      J1-37-30-31-B    46.00      0.013      0.00       0.00       0.00       1.20      
P-I5-36-30-27    I5-36-30-27      J1-36-30-28-A    27.70      0.013      0.00       0.00       0.00       7.00      
P-I5-36-30-28a   I5-36-30-28      I5-36-30-31      40.00      0.013      0.00       0.00       0.00       1.20      
P-I5-36-30-28b   I5-36-30-28      O-36-30-96       115.23     0.013      0.00       0.00       0.00       7.00      
P-I5-36-30-30    I5-36-30-30      J1-36-30-32-A    420.18     0.013      0.00       0.00       0.00       7.00      
P-I5-36-30-31    I5-36-30-31      O-36-30-67       110.44     0.013      0.00       0.00       0.00       1.20      
P-I5-36-30-32    I5-36-30-32      J1-36-30-27-A    61.51      0.013      0.00       0.00       0.00       7.00      
P-I5-37-30-10    I5-37-30-10      J1-37-30-9-A     180.97     0.013      0.00       0.00       0.00       1.70      
P-I5-37-30-12    I5-37-30-12      J1-37-30-3-A     277.36     0.013      0.00       0.00       0.00       5.00      
P-I5-37-30-2     J5-37-30-2       I5-37-30-8       745.97     0.013      0.00       0.00       0.00       5.00      
P-I5-37-30-314   I5-37-30-314     J1-37-31-32      446.43     0.013      0.00       0.00       0.00       5.00      
P-I5-37-30-8     I5-37-30-8       J1-37-30-29      170.52     0.013      0.00       0.00       0.00       5.00      
P-I5-37-30-9     I5-37-30-9       J1-37-30-31      310.37     0.013      0.00       0.00       0.00       1.70      
P-I5-37-31-12    I5-37-31-12      J1-37-30-17-B    110.03     0.013      0.00       0.00       0.00       1.50      
P-I5-38-30-5     I5-38-30-5       J1-38-30-5       21.79      0.013      0.00       0.00       0.00       1.20      
P-I5-38-30-6     I5-38-30-6       I5-37-30-12      85.42      0.013      0.00       0.00       0.00       2.50      
P-J1-36-30-27-A  J1-36-30-27-A    J1-36-30-27-B    266.53     0.013      0.00       0.00       0.00       7.00      
P-J1-36-30-27-B  J1-36-30-27-B    J1-36-30-27-C    299.23     0.013      0.00       0.00       0.00       7.00      
P-J1-36-30-27-C  J1-36-30-27-C    I5-36-30-27      41.10      0.013      0.00       0.00       0.00       7.00      
P-J1-36-30-28-A  J1-36-30-28-A    J1-36-30-28-B    21.70      0.013      0.00       0.00       0.00       7.00      
P-J1-36-30-28-B  J1-36-30-28-B    J1-36-30-28-C    19.80      0.013      0.00       0.00       0.00       7.00      
P-J1-36-30-28-C  J1-36-30-28-C    I5-36-30-28      109.81     0.013      0.00       0.00       0.00       7.00      
P-J1-36-30-29-A  J1-36-30-29-A    I2-36-30-49      111.50     0.013      0.00       0.00       0.00       1.50      
P-J1-36-30-32-A  J1-36-30-32-A    J1-36-30-32-B    88.31      0.013      0.00       0.00       0.00       7.00      
P-J1-36-30-32-B  J1-36-30-32-B    I5-36-30-32      75.57      0.013      0.00       0.00       0.00       7.00      
P-J1-37-30-17-B  J1-37-30-17-B    J1-37-30-31      77.25      0.013      0.00       0.00       0.00       1.50      
P-J1-37-30-2-B   J1-37-30-2-B     J5-37-30-2       100.01     0.013      0.00       0.00       0.00       4.00      
P-J1-37-30-29    J1-37-30-29      J1-37-30-31-A    43.50      0.013      0.00       0.00       0.00       5.00      
P-J1-37-30-3-A   J1-37-30-3-A     J1-37-30-3-C     260.59     0.013      0.00       0.00       0.00       5.00      
P-J1-37-30-3-C   J1-37-30-3-C     I5-37-30-314     114.02     0.013      0.00       0.00       0.00       5.00      
P-J1-37-30-31    J1-37-30-31      I5-36-30-30      72.51      0.013      0.00       0.00       0.00       5.00      
P-J1-37-30-31-A  J1-37-30-31-A    J1-37-30-31-B    11.00      0.013      0.00       0.00       0.00       5.00      
P-J1-37-30-31-B  J1-37-30-31-B    J1-37-30-31-D    264.03     0.013      0.00       0.00       0.00       5.00      
P-J1-37-30-31-D  J1-37-30-31-D    J1-37-30-31      85.01      0.013      0.00       0.00       0.00       5.00      
P-J1-37-30-9-A   J1-37-30-9-A     I5-37-30-9       95.26      0.013      0.00       0.00       0.00       1.70      
P-J1-37-31-32    J1-37-31-32      J5-37-30-2       191.43     0.013      0.00       0.00       0.00       5.00      
P-J1-38-30-5     J1-38-30-5       J1-38-30-6-A     221.48     0.013      0.00       0.00       0.00       2.50      
P-J1-38-30-6-A   J1-38-30-6-A     I5-38-30-6       127.26     0.013      0.00       0.00       0.00       2.50      

[XSECTIONS]
;;Link           Shape        Geom1      Geom2      Geom3      Geom4      Barrels
;;-------------- ------------ ---------- ---------- ---------- ---------- ----------
P-I1-36-30-36    CIRCULAR      1.20       0.00       0.000      0.00       1         
P-I1-36-30-44    CIRCULAR      1.20       0.00       0.000      0.00       1         
P-I1-36-30-45    CIRCULAR      1.20       0.00       0.000      0.00       1         
P-I1-36-31-34    CIRCULAR      1.20       0.00       0.000      0.00       1         
P-I1-36-31-35    CIRCULAR      1.20       0.00       0.000      0.00       1         
P-I1-36-31-40    CIRCULAR      1.20       0.00       0.000      0.00       1         
P-I1-36-31-41    CIRCULAR      1.20       0.00       0.000      0.00       1         
P-I1-36-31-42    CIRCULAR      1.20       0.00       0.000      0.00       1         
P-I1-36-31-43    CIRCULAR      1.00       0.00       0.000      0.00       1         
P-I1-36-31-44    CIRCULAR      1.20       0.00       0.000      0.00       1         
P-I1-36-31-45    CIRCULAR      1.20       0.00       0.000      0.00       1         
P-I1-37-30-18    CIRCULAR      1.20       0.00       0.000      0.00       1         
P-I1-37-30-19    CIRCULAR      1.20       0.00       0.000      0.00       1         
P-I1-37-30-20    CIRCULAR      1.20       0.00       0.000      0.00       1         
P-I1-37-30-21    CIRCULAR      1.20       0.00       0.000      0.00       1         
P-I1-37-30-22    CIRCULAR      1.20       0.00       0.000      0.00       1         
P-I1-37-30-23    CIRCULAR      1.20       0.00       0.000      0.00       1         
P-I1-37-31-13    CIRCULAR      1.20       0.00       0.000      0.00       1         
P-I1-37-31-16    CIRCULAR      1.20       0.00       0.000      0.00       1         
P-I1-37-31-26    CIRCULAR      1.50       0.00       0.000      0.00       1         
P-I1-37-31-27    CIRCULAR      1.20       0.00       0.000      0.00       1         
P-I1-37-31-29    CIRCULAR      1.20       0.00       0.000      0.00       1         
P-I1-37-31-30    CIRCULAR      1.20       0.00       0.000      0.00       1         
P-I1-38-30-12    CIRCULAR      1.20       0.00       0.000      0.00       1         
P-I1-38-30-13    CIRCULAR      1.20       0.00       0.000      0.00       1         
P-I1-38-30-14    CIRCULAR      1.20       0.00       0.000      0.00       1         
P-I1-38-31-31    CIRCULAR      1.20       0.00       0.000      0.00       1         
P-I2-36-30-46    CIRCULAR      1.20       0.00       0.000      0.00       1         
P-I2-36-30-47    CIRCULAR      1.20       0.00       0.000      0.00       1         
P-I2-36-30-49    CIRCULAR      1.20       0.00       0.000      0.00       1         
P-I2-36-30-50    CIRCULAR      1.20       0.00       0.000      0.00       1         
P-I2-36-30-71    CIRCULAR      1.50       0.00       0.000      0.00       1         
P-I2-36-31-30    CIRCULAR      1.20       0.00       0.000      0.00       1         
P-I2-37-31-17    CIRCULAR      1.20       0.00       0.000      0.00       1         
P-I3-37-31-28    CIRCULAR      1.20       0.00       0.000      0.00       1         
P-I4-37-31-15    CIRCULAR      1.20       0.00       0.000      0.00       1         
P-I5-36-30-27    CIRCULAR      7.00       0.00       0.000      0.00       1         
P-I5-36-30-28a   CIRCULAR      1.20       0.00       0.000      0.00       1         
P-I5-36-30-28b   CIRCULAR      7.00       0.00       0.000      0.00       1         
P-I5-36-30-30    CIRCULAR      7.00       0.00       0.000      0.00       1         
P-I5-36-30-31    CIRCULAR      1.20       0.00       0.000      0.00       1         
P-I5-36-30-32    CIRCULAR      7.00       0.00       0.000      0.00       1         
P-I5-37-30-10    CIRCULAR      1.70       0.00       0.000      0.00       1         
P-I5-37-30-12    CIRCULAR      5.00       0.00       0.000      0.00       1         
P-I5-37-30-2     CIRCULAR      5.00       0.00       0.000      0.00       1         
P-I5-37-30-314   CIRCULAR      5.00       0.00       0.000      0.00       1         
P-I5-37-30-8     CIRCULAR      5.00       0.00       0.000      0.00       1         
P-I5-37-30-9     CIRCULAR      1.70       0.00       0.000      0.00       1         
P-I5-37-31-12    CIRCULAR      1.50       0.00       0.000      0.00       1         
P-I5-38-30-5     CIRCULAR      1.20       0.00       0.000      0.00       1         
P-I5-38-30-6     CIRCULAR      2.50       0.00       0.000      0.00       1         
P-J1-36-30-27-A  CIRCULAR      7.00       0.00       0.000      0.00       1         
P-J1-36-30-27-B  CIRCULAR      7.00       0.00       0.000      0.00       1         
P-J1-36-30-27-C  CIRCULAR      7.00       0.00       0.000      0.00       1         
P-J1-36-30-28-A  CIRCULAR      7.00       0.00       0.000      0.00       1         
P-J1-36-30-28-B  CIRCULAR      7.00       0.00       0.000      0.00       1         
P-J1-36-30-28-C  CIRCULAR      7.00       0.00       0.000      0.00       1         
P-J1-36-30-29-A  CIRCULAR      1.50       0.00       0.000      0.00       1         
P-J1-36-30-32-A  CIRCULAR      7.00       0.00       0.000      0.00       1         
P-J1-36-30-32-B  CIRCULAR      7.00       0.00       0.000      0.00       1         
P-J1-37-30-17-B  CIRCULAR      1.50       0.00       0.000      0.00       1         
P-J1-37-30-2-B   CIRCULAR      4.00       0.00       0.000      0.00       1         
P-J1-37-30-29    CIRCULAR      5.00       0.00       0.000      0.00       1         
P-J1-37-30-3-A   CIRCULAR      5.00       0.00       0.000      0.00       1         
P-J1-37-30-3-C   CIRCULAR      5.00       0.00       0.000      0.00       1         
P-J1-37-30-31    CIRCULAR      5.00       0.00       0.000      0.00       1         
P-J1-37-30-31-A  CIRCULAR      5.00       0.00       0.000      0.00       1         
P-J1-37-30-31-B  CIRCULAR      5.00       0.00       0.000      0.00       1         
P-J1-37-30-31-D  CIRCULAR      5.00       0.00       0.000      0.00       1         
P-J1-37-30-9-A   CIRCULAR      1.70       0.00       0.000      0.00       1         
P-J1-37-31-32    CIRCULAR      5.00       0.00       0.000      0.00       1         
P-J1-38-30-5     CIRCULAR      2.50       0.00       0.000      0.00       1         
P-J1-38-30-6-A   CIRCULAR      2.50       0.00       0.000      0.00       1         

[LOSSES]
;;Link           Inlet      Outlet     Average    Flap Gate
;;-------------- ---------- ---------- ---------- ----------
P-I1-36-30-36    0.0        0.0        0.00       NO        
P-I1-36-30-44    0.0        0.0        0.00       NO        
P-I1-36-30-45    0.0        0.0        0.00       NO        
P-I1-36-31-34    0.0        0.0        0.00       NO        
P-I1-36-31-35    0.0        0.0        0.00       NO        
P-I1-36-31-40    0.0        0.0        0.00       NO        
P-I1-36-31-41    0.0        0.0        0.00       NO        
P-I1-36-31-42    0.0        0.0        0.00       NO        
P-I1-36-31-43    0.0        0.0        0.00       NO        
P-I1-36-31-44    0.0        0.0        0.00       NO        
P-I1-36-31-45    0.0        0.0        0.00       NO        
P-I1-37-30-18    0.0        0.0        0.00       NO        
P-I1-37-30-19    0.0        0.0        0.00       NO        
P-I1-37-30-20    0.0        0.0        0.00       NO        
P-I1-37-30-21    0.0        0.0        0.00       NO        
P-I1-37-30-22    0.0        0.0        0.00       NO        
P-I1-37-30-23    0.0        0.0        0.00       NO        
P-I1-37-31-13    0.0        0.0        0.00       NO        
P-I1-37-31-16    0.0        0.0        0.00       NO        
P-I1-37-31-26    0.0        0.0        0.00       NO        
P-I1-37-31-27    0.0        0.0        0.00       NO        
P-I1-37-31-29    0.0        0.0        0.00       NO        
P-I1-37-31-30    0.0        0.0        0.00       NO        
P-I1-38-30-12    0.0        0.0        0.00       NO        
P-I1-38-30-13    0.0        0.0        0.00       NO        
P-I1-38-30-14    0.0        0.0        0.00       NO        
P-I1-38-31-31    0.0        0.0        0.00       NO        
P-I2-36-30-46    0.0        0.0        0.00       NO        
P-I2-36-30-47    0.0        0.0        0.00       NO        
P-I2-36-30-49    0.0        0.0        0.00       NO        
P-I2-36-30-50    0.0        0.0        0.00       NO        
P-I2-36-30-71    0.0        0.0        0.00       NO        
P-I2-36-31-30    0.0        0.0        0.00       NO        
P-I2-37-31-17    0.0        0.0        0.00       NO        
P-I3-37-31-28    0.0        0.0        0.00       NO        
P-I4-37-31-15    0.0        0.0        0.00       NO        
P-I5-36-30-27    0.0        0.0        0.00       NO        
P-I5-36-30-28a   0.0        0.0        0.00       NO        
P-I5-36-30-28b   0.0        0.0        0.00       NO        
P-I5-36-30-30    0.0        0.0        0.00       NO        
P-I5-36-30-31    0.0        0.0        0.00       NO        
P-I5-36-30-32    0.0        0.0        0.00       NO        
P-I5-37-30-10    0.0        0.0        0.00       NO        
P-I5-37-30-12    0.0        0.0        0.00       NO        
P-I5-37-30-2     0.0        0.0        0.00       NO        
P-I5-37-30-314   0.0        0.0        0.00       NO        
P-I5-37-30-8     0.0        0.0        0.00       NO        
P-I5-37-30-9     0.0        0.0        0.00       NO        
P-I5-37-31-12    0.0        0.0        0.00       NO        
P-I5-38-30-5     0.0        0.0        0.00       NO        
P-I5-38-30-6     0.0        0.0        0.00       NO        
P-J1-36-30-27-A  0.0        0.0        0.00       NO        
P-J1-36-30-27-B  0.0        0.0        0.00       NO        
P-J1-36-30-27-C  0.0        0.0        0.00       NO        
P-J1-36-30-28-A  0.0        0.0        0.00       NO        
P-J1-36-30-28-B  0.0        0.0        0.00       NO        
P-J1-36-30-28-C  0.0        0.0        0.00       NO        
P-J1-36-30-29-A  0.0        0.0        0.00       NO        
P-J1-36-30-32-A  0.0        0.0        0.00       NO        
P-J1-36-30-32-B  0.0        0.0        0.00       NO        
P-J1-37-30-17-B  0.0        0.0        0.00       NO        
P-J1-37-30-2-B   0.0        0.0        0.00       NO        
P-J1-37-30-29    0.0        0.0        0.00       NO        
P-J1-37-30-3-A   0.0        0.0        0.00       NO        
P-J1-37-30-3-C   0.0        0.0        0.00       NO        
P-J1-37-30-31    0.0        0.0        0.00       NO        
P-J1-37-30-31-A  0.0        0.0        0.00       NO        
P-J1-37-30-31-B  0.0        0.0        0.00       NO        
P-J1-37-30-31-D  0.0        0.0        0.00       NO        
P-J1-37-30-9-A   0.0        0.0        0.00       NO        
P-J1-37-31-32    0.0        0.0        0.00       NO        
P-J1-38-30-5     0.0        0.0        0.00       NO        
P-J1-38-30-6-A   0.0        0.0        0.00       NO        

[CONTROLS]



[TIMESERIES]
;;Name           Date       Time       Value     
;;-------------- ---------- ---------- ----------

[PATTERNS]
;;Name           Type       Multipliers
;;-------------- ---------- -----------

[REPORT]
INPUT           YES
CONTROLS        YES
SUBCATCHMENTS   NONE
NODES           ALL
LINKS           ALL

[COORDINATES]
;;Node           X-Coord            Y-Coord 
;;-------------- ------------------ ------------------
I1-36-30-36      659382.812228      960510.942951     
I1-36-30-44      659930.103517      959189.863861     
I1-36-30-45      659925.990277      959846.050775     
I1-36-31-34      659987.758601      960071.759192     
I1-36-31-35      659984.24066       959983.43777      
I1-36-31-40      659987.711685      959170.380955     
I1-36-31-41      660032.003862      959219.130909     
I1-36-31-42      659988.10428       959280.684635     
I1-36-31-43      659986.456647      959579.879832     
I1-36-31-44      660016.905171      959032.992386     
I1-36-31-45      660043.380966      959072.739346     
I1-37-30-18      659941.198482      961137.655276     
I1-37-30-19      659941.631757      960649.162067     
I1-37-30-20      659382.285555      960602.941533     
I1-37-30-21      659563.229723      960603.97733      
I1-37-30-22      659936.784644      962643.830069     
I1-37-30-23      659938.522814      961875.544526     
I1-37-31-13      660003.197693      961137.964344     
I1-37-31-16      660005.608321      960653.980644     
I1-37-31-26      660001.737072      962635.677202     
I1-37-31-27      660029.057291      963173.710058     
I1-37-31-29      660030.516288      961862.769297     
I1-37-31-30      660041.822113      961894.234158     
I1-38-30-12      659922.937869      963385.189455     
I1-38-30-13      659925.420237      963603.336844     
I1-38-30-14      659926.538722      963256.937633     
I1-38-31-31      660028.833161      963218.709351     
I2-36-30-46      659397.378403      959056.039428     
I2-36-30-47      659396.428827      959151.034727     
I2-36-30-49      658689.478983      959043.939559     
I2-36-30-50      658698.345326      959145.179275     
I2-36-30-71      658645.848545      959312.739065     
I2-36-31-30      660054.758003      960489.322378     
I2-37-31-17      660046.006247      960611.771055     
I3-37-31-15      660013.315699      960913.522017     
I3-37-31-28      659990.528718      962075.220162     
I5-36-30-27      659976.330728      959239.519325     
I5-36-30-28      659943.823766      959067.191103     
I5-36-30-30      659969.451095      960491.799064     
I5-36-30-31      659903.82385       959067.191095     
I5-36-30-32      659972.650544      959907.808261     
I5-37-30-10      659382.526086      960560.942237     
I5-37-30-12      659956.058106      963173.346527     
I5-37-30-314     659959.309467      962521.455211     
I5-37-30-8       659966.1981        961137.779953     
I5-37-30-9       659658.720707      960562.523657     
I5-37-31-12      660156.310854      960565.447312     
I5-38-30-5       659961.11654       963610.829517     
I5-38-30-6       659954.279802      963258.743411     
J1-36-30-27-A    659972.989193      959846.309315     
J1-36-30-27-B    659974.456673      959579.813556     
J1-36-30-27-C    659976.104306      959280.618688     