[TITLE]
INP file created by FLO-2D

[OPTIONS]
FLOW_UNITS           CFS
INFILTRATION         HORTON
FLOW_ROUTING         DYNWAVE
START_DATE           06/28/2025
START_TIME           00:00:00
REPORT_START_DATE    06/28/2025
REPORT_START_TIME    00:00:00
END_DATE             06/28/2025
END_TIME             10:00:00
SWEEP_START          01/01
SWEEP_END            12/31
DRY_DAYS             0
REPORT_STEP          00:06:00
WET_STEP             00:05:00
DRY_STEP             01:00:00
ROUTING_STEP         00:01:00
ALLOW_PONDING        NO
INERTIAL_DAMPING     PARTIAL
VARIABLE_STEP        0.75
LENGTHENING_STEP     0
MIN_SURFAREA         0
NORMAL_FLOW_LIMITED  BOTH
SKIP_STEADY_STATE    NO
FORCE_MAIN_EQUATION  H-W
LINK_OFFSETS         DEPTH
MIN_SLOPE            0.01

[JUNCTIONS]
;;               Invert     Max.       Init.      Surcharge  Ponded
;;Name           Elev.      Depth      Depth      Depth      Area
;;-------------- ---------- ---------- ---------- ---------- ----------
I1-35-31-18      1399.43    15.00      0.00       0.00       0.00      
I1-35-32-54      1399.43    15.00      0.00       0.00       0.00      
I1-36-31-133     1405.73    4.80       0.00       0.00       0.00      
I1-36-31-136     1405.93    4.60       0.00       0.00       0.00      
I1-36-31-141     1407.14    3.80       0.00       0.00       0.00      
I1-36-31-146     1405.52    6.70       0.00       0.00       0.00      
I1-36-31-151     1407.75    3.90       0.00       0.00       0.00      
I1-36-31-155     1407.99    5.30       0.00       0.00       0.00      
I1-36-31-156     1409.16    3.30       0.00       0.00       0.00      
I1-36-31-176     1409.52    4.10       0.00       0.00       0.00      
I1-36-31-177     1406.07    7.50       0.00       0.00       0.00      
I1-36-31-179     1409.48    6.40       0.00       0.00       0.00      
I1-36-31-180     1414.37    4.50       0.00       0.00       0.00      
I1-36-31-181     1419.97    4.50       0.00       0.00       0.00      
I1-36-31-33      1407.51    10.00      0.00       0.00       0.00      
I1-36-31-46      1402.20    3.80       0.00       0.00       0.00      
I1-36-31-51      1406.10    3.10       0.00       0.00       0.00      
I1-36-31-52      1404.72    5.90       0.00       0.00       0.00      
I1-36-32-13      1409.59    17.00      0.00       0.00       0.00      
I1-36-32-57      1404.16    9.60       0.00       0.00       0.00      
I1-36-32-59      1409.10    5.30       0.00       0.00       0.00      
I1-36-32-63      1409.78    5.50       0.00       0.00       0.00      
I1-36-32-66      1413.07    5.70       0.00       0.00       0.00      
I1-36-32-70      1420.91    4.40       0.00       0.00       0.00      
I1-37-31-22      1407.51    10.00      0.00       0.00       0.00      
I1-37-31-23      1408.13    10.00      0.00       0.00       0.00      
I1-37-31-25      1409.75    10.00      0.00       0.00       0.00      
I1-37-31-41-1    1422.30    3.90       0.00       0.00       0.00      
I1-37-31-42-2    1418.60    7.90       0.00       0.00       0.00      
I1-37-31-47-1    1424.04    4.20       0.00       0.00       0.00      
I1-37-31-48-2    1425.37    5.00       0.00       0.00       0.00      
I1-37-31-49-1    1426.70    4.40       0.00       0.00       0.00      
I1-37-31-49-3    1426.70    4.20       0.00       0.00       0.00      
I1-37-32-42      1409.64    17.00      0.00       0.00       0.00      
I1-37-32-43      1424.04    3.90       0.00       0.00       0.00      
I1-37-32-52-1    1429.37    4.60       0.00       0.00       0.00      
I1-37-32-53      1426.39    7.20       0.00       0.00       0.00      
I2-36-31-31      1408.27    5.40       0.00       0.00       0.00      
I2-36-31-32      1409.08    5.00       0.00       0.00       0.00      
I2-36-31-36      1408.60    4.40       0.00       0.00       0.00      
I2-36-31-37      1407.70    6.30       0.00       0.00       0.00      
I2-36-31-50      1404.80    6.90       0.00       0.00       0.00      
I2-36-31-53      1403.80    3.80       0.00       0.00       0.00      
I2-36-31-55      1407.40    4.00       0.00       0.00       0.00      
I2-37-31-18      1405.26    8.30       0.00       0.00       0.00      
I2-37-31-19      1405.87    8.20       0.00       0.00       0.00      
I2-37-31-20      1409.98    5.50       0.00       0.00       0.00      
I2-37-31-21      1412.22    4.50       0.00       0.00       0.00      
I3-36-31-165     1408.23    4.20       0.00       0.00       0.00      
I3-36-31-167     1407.72    4.20       0.00       0.00       0.00      
I3-36-31-168     1407.47    4.00       0.00       0.00       0.00      
I3-36-31-171     1410.50    4.60       0.00       0.00       0.00      
I3-36-31-173     1409.26    4.40       0.00       0.00       0.00      
I3-37-31-24      1413.34    9.50       0.00       0.00       0.00      
I3-37-31-42-3    1420.80    5.70       0.00       0.00       0.00      
I4-37-32-26-1    1418.80    4.00       0.00       0.00       0.00      
I5-35-32-14-A    1400.70    13.00      0.00       0.00       0.00      
I5-35-32-34      1397.18    19.00      0.00       0.00       0.00      
I5-35-32-93      1397.25    17.00      0.00       0.00       0.00      
I5-36-31-1       1408.94    18.00      0.00       0.00       0.00      
I5-36-31-134     1392.48    19.00      0.00       0.00       0.00      
I5-36-31-140     1404.77    6.80       0.00       0.00       0.00      
I5-36-31-148     1395.45    17.00      0.00       0.00       0.00      
I5-36-31-149     1405.25    6.30       0.00       0.00       0.00      
I5-36-31-170     1397.76    17.00      0.00       0.00       0.00      
I5-36-31-49      1406.10    3.50       0.00       0.00       0.00      
I5-36-31-74      1392.38    17.00      0.00       0.00       0.00      
I5-36-31-74-1    1392.48    17.00      0.00       0.00       0.00      
I5-36-32-55      1399.53    15.00      0.00       0.00       0.00      
I5-36-32-61      1403.17    15.00      0.00       0.00       0.00      
I5-36-32-65      1405.69    18.00      0.00       0.00       0.00      
I5-37-31-10      1404.36    19.00      0.00       0.00       0.00      
I5-37-31-3       1409.96    17.00      0.00       0.00       0.00      
I5-37-31-47      1412.57    16.00      0.00       0.00       0.00      
I5-37-31-5       1404.10    10.00      0.00       0.00       0.00      
I5-37-31-50      1413.13    18.00      0.00       0.00       0.00      
I5-37-31-6       1404.41    10.00      0.00       0.00       0.00      
I5-37-31-7       1406.98    9.80       0.00       0.00       0.00      
I5-37-31-9       1399.36    19.00      0.00       0.00       0.00      
J1-35-32-14      1397.55    17.00      0.00       0.00       0.00      
J1-35-32-34-A    1397.43    17.00      0.00       0.00       0.00      
J1-35-32-34-B    1397.40    17.00      0.00       0.00       0.00      
J1-36-31-1-B     1409.52    18.00      0.00       0.00       0.00      
J1-36-31-134-A   1393.11    18.00      0.00       0.00       0.00      
J1-36-31-134-C   1392.83    18.00      0.00       0.00       0.00      
J1-36-31-134-D   1392.60    17.00      0.00       0.00       0.00      
J1-36-31-134-E   1392.50    17.00      0.00       0.00       0.00      
J1-36-31-148-A   1397.36    17.00      0.00       0.00       0.00      
J1-36-31-148-B   1396.29    17.00      0.00       0.00       0.00      
J1-36-31-165-O   1395.31    17.00      0.00       0.00       0.00      
J1-36-31-183     1393.24    18.00      0.00       0.00       0.00      
J1-36-31-183-A   1394.79    17.00      0.00       0.00       0.00      
J1-36-31-183-B   1394.26    17.00      0.00       0.00       0.00      
J1-36-31-183-C   1394.19    17.00      0.00       0.00       0.00      
J1-36-31-26-A    1392.36    16.00      0.00       0.00       0.00      
J1-36-31-26-B    1392.35    17.00      0.00       0.00       0.00      
J1-36-31-48      1405.30    4.70       0.00       0.00       0.00      
J1-36-31-62      1398.60    18.00      0.00       0.00       0.00      
J1-36-31-62-A    1398.67    18.00      0.00       0.00       0.00      
J1-36-31-64      1408.71    18.00      0.00       0.00       0.00      
J1-36-32-24-A    1398.48    15.00      0.00       0.00       0.00      
J1-36-32-24-B    1398.05    15.00      0.00       0.00       0.00      
J1-36-32-24-C    1398.00    15.00      0.00       0.00       0.00      
J1-36-32-24-D    1397.92    16.00      0.00       0.00       0.00      
J1-36-32-55-A    1399.67    15.00      0.00       0.00       0.00      
J1-36-32-61-A    1403.43    15.00      0.00       0.00       0.00      
J1-36-32-61-B    1403.39    15.00      0.00       0.00       0.00      
J1-36-32-65-A    1407.56    17.00      0.00       0.00       0.00      
J1-36-32-65-B    1405.99    18.00      0.00       0.00       0.00      
J1-37-31-1-A     1413.28    20.00      0.00       0.00       0.00      
J1-37-31-10-A    1405.76    17.00      0.00       0.00       0.00      
J1-37-31-12-B    1400.07    14.00      0.00       0.00       0.00      
J1-37-31-2       1401.68    19.00      0.00       0.00       0.00      
J1-37-31-41-2    1411.31    14.00      0.00       0.00       0.00      
J1-37-31-42      1411.52    14.00      0.00       0.00       0.00      
J1-37-31-43      1409.10    18.00      0.00       0.00       0.00      
J1-37-31-46-A    1412.37    15.00      0.00       0.00       0.00      
J1-37-31-47-2    1412.43    15.00      0.00       0.00       0.00      
J1-37-31-48-1    1412.79    17.00      0.00       0.00       0.00      
J1-37-31-49-2    1412.97    18.00      0.00       0.00       0.00      
J1-37-31-5-A     1404.10    10.00      0.00       0.00       0.00      
J1-37-31-6-A     1405.53    10.00      0.00       0.00       0.00      
J1-37-31-9-A     1400.24    18.00      0.00       0.00       0.00      
J1-37-32-26      1413.30    20.00      0.00       0.00       0.00      
J1-37-32-52-2    1413.25    20.00      0.00       0.00       0.00      

[OUTFALLS]
;;               Invert     Outfall      Stage/Table       Tide
;;Name           Elev.      Type         Time Series       Gate
;;-------------- ---------- ------------ ----------------  ----
O-35-31-23       1397.16    FREE                           NO              
O-35-31-9        1396.70    FREE                           NO              
O-36-31-11       1394.10    FREE                           NO              
O-36-31-13       1392.15    FREE                           NO              
O-36-31-14       1394.80    FREE                           NO              
O-36-31-23       1387.97    FREE                           NO              
O-36-31-28       1389.02    FREE                           NO              

[CONDUITS]
;;               Inlet            Outlet                      Manning    Inlet      Outlet     Init.      Max.
;;Name           Node             Node             Length     N          Offset     Offset     Flow       Flow
;;-------------- ---------------- ---------------- ---------- ---------- ---------- ---------- ---------- ----------
P-I1-35-31-18    I1-35-31-18      J1-35-32-34-A    33.00      0.013      0.00       0.00       0.00       1.20      
P-I1-35-32-54    I1-35-32-54      J1-35-32-34-B    7.00       0.013      0.00       0.00       0.00       1.20      
P-I1-36-31-133   I1-36-31-133     J1-36-31-134-E   36.25      0.013      0.00       0.00       0.00       1.20      
P-I1-36-31-136   I1-36-31-136     J1-36-31-134-D   14.00      0.013      0.00       0.00       0.00       1.20      
P-I1-36-31-141   I1-36-31-141     J1-36-31-134-C   24.00      0.013      0.00       0.00       0.00       1.20      
P-I1-36-31-146   I1-36-31-146     J1-36-31-134-A   8.73       0.013      0.00       0.00       0.00       1.20      
P-I1-36-31-151   I1-36-31-151     I5-36-31-149     24.00      0.013      0.00       0.00       0.00       1.20      
P-I1-36-31-155   I1-36-31-155     J1-36-31-183-C   85.33      0.013      0.00       0.00       0.00       1.20      
P-I1-36-31-156   I1-36-31-156     I1-36-31-155     26.51      0.013      0.00       0.00       0.00       1.20      
P-I1-36-31-176   I1-36-31-176     J1-36-32-24-D    31.53      0.013      0.00       0.00       0.00       1.20      
P-I1-36-31-177   I1-36-31-177     J1-36-32-24-B    30.83      0.013      0.00       0.00       0.00       1.20      
P-I1-36-31-179   I1-36-31-179     J1-36-32-55-A    30.00      0.013      0.00       0.00       0.00       1.20      
P-I1-36-31-180   I1-36-31-180     J1-36-32-61-A    30.00      0.013      0.00       0.00       0.00       1.20      
P-I1-36-31-181   I1-36-31-181     J1-36-32-65-B    27.54      0.013      0.00       0.00       0.00       1.20      
P-I1-36-31-33    I1-36-31-33      J1-36-31-62-A    32.00      0.013      0.00       0.00       0.00       1.20      
P-I1-36-31-46    I1-36-31-46      O-36-31-23       99.58      0.013      0.00       0.00       0.00       1.20      
P-I1-36-31-51    I1-36-31-51      J1-36-31-26-B    24.66      0.013      0.00       0.00       0.00       1.20      
P-I1-36-31-52    I1-36-31-52      J1-36-31-26-A    10.00      0.013      0.00       0.00       0.00       1.20      
P-I1-36-32-13    I1-36-32-13      J1-36-31-1-B     48.01      0.013      0.00       0.00       0.00       1.20      
P-I1-36-32-57    I1-36-32-57      J1-36-32-24-C    6.94       0.013      0.00       0.00       0.00       1.20      
P-I1-36-32-59    I1-36-32-59      J1-36-32-24-A    9.01       0.013      0.00       0.00       0.00       1.20      
P-I1-36-32-63    I1-36-32-63      J1-36-32-55-A    9.40       0.013      0.00       0.00       0.00       1.20      
P-I1-36-32-66    I1-36-32-66      J1-36-32-61-B    8.76       0.013      0.00       0.00       0.00       1.20      
P-I1-36-32-70    I1-36-32-70      J1-36-32-65-A    38.82      0.013      0.00       0.00       0.00       1.20      
P-I1-37-31-22    I1-37-31-22      I5-37-31-9       41.79      0.013      0.00       0.00       0.00       1.20      
P-I1-37-31-23    I1-37-31-23      J1-37-31-9-A     39.14      0.013      0.00       0.00       0.00       1.20      
P-I1-37-31-25    I1-37-31-25      J1-37-31-2       40.20      0.013      0.00       0.00       0.00       1.20      
P-I1-37-31-41-1  I1-37-31-41-1    J1-37-31-41-2    11.33      0.013      0.00       0.00       0.00       1.20      
P-I1-37-31-42-2  I1-37-31-42-2    J1-37-31-42      27.40      0.013      0.00       0.00       0.00       1.50      
P-I1-37-31-47-1  I1-37-31-47-1    J1-37-31-47-2    16.43      0.013      0.00       0.00       0.00       1.20      
P-I1-37-31-48-2  I1-37-31-48-2    J1-37-31-48-1    20.54      0.013      0.00       0.00       0.00       1.20      
P-I1-37-31-49-1  I1-37-31-49-1    J1-37-31-49-2    15.74      0.013      0.00       0.00       0.00       1.20      
P-I1-37-31-49-3  I1-37-31-49-3    J1-37-31-49-2    30.42      0.013      0.00       0.00       0.00       1.20      
P-I1-37-32-42    I1-37-32-42      J1-36-31-1-B     42.76      0.013      0.00       0.00       0.00       1.20      
P-I1-37-32-43    I1-37-32-43      J1-37-31-46-A    24.10      0.013      0.00       0.00       0.00       1.20      
P-I1-37-32-52-1  I1-37-32-52-1    J1-37-32-52-2    42.08      0.013      0.00       0.00       0.00       1.20      
P-I1-37-32-53    I1-37-32-53      J1-37-31-1-A     10.00      0.013      0.00       0.00       0.00       1.20      
P-I2-36-31-31    I2-36-31-31      J1-37-31-12-B    53.61      0.013      0.00       0.00       0.00       1.20      
P-I2-36-31-32    I2-36-31-32      I5-37-31-6       52.01      0.013      0.00       0.00       0.00       1.20      
P-I2-36-31-36    I2-36-31-36      I2-36-31-37      46.00      0.013      0.00       0.00       0.00       1.20      
P-I2-36-31-37    I2-36-31-37      O-35-31-9        118.47     0.013      0.00       0.00       0.00       1.20      
P-I2-36-31-50    I2-36-31-50      O-36-31-11       121.82     0.013      0.00       0.00       0.00       1.20      
P-I2-36-31-53    I2-36-31-53      I1-36-31-46      54.57      0.013      0.00       0.00       0.00       1.20      
P-I2-36-31-55    I2-36-31-55      O-36-31-14       161.98     0.013      0.00       0.00       0.00       1.20      
P-I2-37-31-18    I2-37-31-18      J1-37-31-12-B    43.50      0.013      0.00       0.00       0.00       1.20      
P-I2-37-31-19    I2-37-31-19      J1-37-31-5-A     45.50      0.013      0.00       0.00       0.00       1.20      
P-I2-37-31-20    I2-37-31-20      J1-37-31-6-A     42.50      0.013      0.00       0.00       0.00       1.20      
P-I2-37-31-21    I2-37-31-21      I5-37-31-7       42.00      0.013      0.00       0.00       0.00       1.20      
P-I3-36-31-165   I3-36-31-165     J1-36-31-165-O   5.00       0.013      0.00       0.00       0.00       1.20      
P-I3-36-31-167   I3-36-31-167     J1-36-31-183-A   5.02       0.013      0.00       0.00       0.00       1.20      
P-I3-36-31-168   I3-36-31-168     J1-36-31-183-B   5.00       0.013      0.00       0.00       0.00       1.20      
P-I3-36-31-171   I3-36-31-171     J1-36-31-148-A   5.00       0.013      0.00       0.00       0.00       1.20      
P-I3-36-31-173   I3-36-31-173     J1-36-31-148-B   5.00       0.013      0.00       0.00       0.00       1.20      
P-I3-37-31-24    I3-37-31-24      J1-37-31-10-A    45.00      0.013      0.00       0.00       0.00       1.20      
P-I3-37-31-42-3  I3-37-31-42-3    I1-37-31-42-2    21.32      0.013      0.00       0.00       0.00       1.50      
P-I4-37-32-26-1  I4-37-32-26-1    J1-37-32-26      103.11     0.013      0.00       0.00       0.00       4.00      
P-I5-35-32-14-A  I5-35-32-14-A    J1-35-32-14      315.03     0.013      0.00       0.00       0.00       1.50      
P-I5-35-32-34    I5-35-32-34      O-35-31-23       130.61     0.013      0.00       0.00       0.00       8.50      
P-I5-35-32-93    I5-35-32-93      J1-35-32-34-A    54.16      0.013      0.00       0.00       0.00       8.50      
P-I5-36-31-1     I5-36-31-1       J1-36-31-64      51.81      0.013      0.00       0.00       0.00       7.00      
P-I5-36-31-134   I5-36-31-134     J1-36-31-134-A   19.35      0.013      0.00       0.00       0.00       7.00      
P-I5-36-31-140   I5-36-31-140     J1-36-31-134-C   35.94      0.013      0.00       0.00       0.00       1.20      
P-I5-36-31-148   I5-36-31-148     J1-36-31-165-O   40.96      0.013      0.00       0.00       0.00       7.00      
P-I5-36-31-149   I5-36-31-149     J1-36-31-183     56.91      0.013      0.00       0.00       0.00       1.20      
P-I5-36-31-170   I5-36-31-170     J1-36-31-148-A   115.01     0.013      0.00       0.00       0.00       7.00      
P-I5-36-31-49    I5-36-31-49      J1-36-31-48      36.00      0.013      0.00       0.00       0.00       1.20      
P-I5-36-31-74    I5-36-31-74      J1-36-31-26-A    12.27      0.013      0.00       0.00       0.00       7.00      
P-I5-36-31-74-1  I5-36-31-74-1    I5-36-31-74      71.28      0.013      0.00       0.00       0.00       7.00      
P-I5-36-32-55    I5-36-32-55      J1-36-32-24-A    59.44      0.013      0.00       0.00       0.00       8.50      
P-I5-36-32-61    I5-36-32-61      J1-36-32-55-A    603.92     0.013      0.00       0.00       0.00       7.50      
P-I5-36-32-65    I5-36-32-65      J1-36-32-61-A    510.06     0.013      0.00       0.00       0.00       7.00      
P-I5-37-31-10    I5-37-31-10      J1-37-31-2       325.03     0.013      0.00       0.00       0.00       7.00      
P-I5-37-31-3a    I5-37-31-3       J1-37-31-43      100.64     0.013      0.00       0.00       0.00       7.00      
P-I5-37-31-3b    I5-37-31-3       I5-36-31-1       72.01      0.013      0.00       0.00       0.00       7.00      
P-I5-37-31-47    I5-37-31-47      J1-37-31-47-2    138.27     0.013      0.00       0.00       0.00       9.00      
P-I5-37-31-5     I5-37-31-5       J1-37-31-12-B    146.41     0.013      0.00       0.00       0.00       1.50      
P-I5-37-31-50    I5-37-31-50      J1-37-31-49-2    147.38     0.013      0.00       0.00       0.00       9.00      
P-I5-37-31-6     I5-37-31-6       J1-37-31-5-A     46.55      0.013      0.00       0.00       0.00       1.50      
P-I5-37-31-7     I5-37-31-7       J1-37-31-6-A     178.52     0.013      0.00       0.00       0.00       1.50      
P-I5-37-31-9     I5-37-31-9       J1-36-31-62-A    82.72      0.013      0.00       0.00       0.00       7.00      
P-I5-37-32-26    J1-37-32-26      J1-37-31-1-A     18.51      0.013      0.00       0.00       0.00       9.00      
P-J1-35-32-14    J1-35-32-14      I5-35-32-93      13.22      0.013      0.00       0.00       0.00       8.50      
P-J1-35-32-34-A  J1-35-32-34-A    J1-35-32-34-B    22.50      0.013      0.00       0.00       0.00       8.50      
P-J1-35-32-34-B  J1-35-32-34-B    I5-35-32-34      101.79     0.013      0.00       0.00       0.00       8.50      
P-J1-36-31-1-B   J1-36-31-1-B     I5-36-31-1       75.38      0.013      0.00       0.00       0.00       7.00      
P-J1-36-31-134-A J1-36-31-134-A   J1-36-31-134-C   186.74     0.013      0.00       0.00       0.00       7.00      
P-J1-36-31-134-C J1-36-31-134-C   J1-36-31-134-D   154.64     0.013      0.00       0.00       0.00       7.00      
P-J1-36-31-134-D J1-36-31-134-D   J1-36-31-134-E   60.21      0.013      0.00       0.00       0.00       7.00      
P-J1-36-31-134-E J1-36-31-134-E   I5-36-31-74-1    18.07      0.013      0.00       0.00       0.00       7.00      
P-J1-36-31-148-A J1-36-31-148-A   J1-36-31-148-B   305.03     0.013      0.00       0.00       0.00       7.00      
P-J1-36-31-148-B J1-36-31-148-B   I5-36-31-148     240.02     0.013      0.00       0.00       0.00       7.00      
P-J1-36-31-165-O J1-36-31-165-O   J1-36-31-183-A   150.07     0.013      0.00       0.00       0.00       7.00      
P-J1-36-31-183   J1-36-31-183     I5-36-31-134     29.30      0.013      0.00       0.00       0.00       7.00      
P-J1-36-31-183-A J1-36-31-183-A   J1-36-31-183-B   149.96     0.013      0.00       0.00       0.00       7.00      
P-J1-36-31-183-B J1-36-31-183-B   J1-36-31-183-C   18.73      0.013      0.00       0.00       0.00       7.00      
P-J1-36-31-183-C J1-36-31-183-C   J1-36-31-183     271.39     0.013      0.00       0.00       0.00       7.00      
P-J1-36-31-26-A  J1-36-31-26-A    J1-36-31-26-B    5.00       0.013      0.00       0.00       0.00       7.00      
P-J1-36-31-26-B  J1-36-31-26-B    O-36-31-13       196.08     0.013      0.00       0.00       0.00       7.00      
P-J1-36-31-48    J1-36-31-48      O-36-31-28       132.08     0.013      0.00       0.00       0.00       1.20      
P-J1-36-31-62    J1-36-31-62      I5-36-31-170     236.66     0.013      0.00       0.00       0.00       7.00      
P-J1-36-31-62-A  J1-36-31-62-A    J1-36-31-62      9.02       0.013      0.00       0.00       0.00       7.00      
P-J1-36-31-64    J1-36-31-64      J1-36-32-65-A    260.34     0.013      0.00       0.00       0.00       7.00      
P-J1-36-32-24-A  J1-36-32-24-A    J1-36-32-24-B    285.91     0.013      0.00       0.00       0.00       8.50      
P-J1-36-32-24-B  J1-36-32-24-B    J1-36-32-24-C    28.80      0.013      0.00       0.00       0.00       8.50      
P-J1-36-32-24-C  J1-36-32-24-C    J1-36-32-24-D    56.06      0.013      0.00       0.00       0.00       8.50      
P-J1-36-32-24-D  J1-36-32-24-D    J1-35-32-14      238.19     0.013      0.00       0.00       0.00       8.50      
P-J1-36-32-55-A  J1-36-32-55-A    I5-36-32-55      28.89      0.013      0.00       0.00       0.00       7.50      
P-J1-36-32-61-A  J1-36-32-61-A    J1-36-32-61-B    10.15      0.013      0.00       0.00       0.00       7.00      
P-J1-36-32-61-B  J1-36-32-61-B    I5-36-32-61      49.85      0.013      0.00       0.00       0.00       7.00      
P-J1-36-32-65-A  J1-36-32-65-A    J1-36-32-65-B    356.11     0.013      0.00       0.00       0.00       7.00      
P-J1-36-32-65-B  J1-36-32-65-B    I5-36-32-65      70.07      0.013      0.00       0.00       0.00       7.00      
P-J1-37-31-1-A   J1-37-31-1-A     J1-37-32-52-2    27.45      0.013      0.00       0.00       0.00       9.00      
P-J1-37-31-10-A  J1-37-31-10-A    I5-37-31-10      167.52     0.013      0.00       0.00       0.00       7.00      
P-J1-37-31-2     J1-37-31-2       J1-37-31-9-A     164.02     0.013      0.00       0.00       0.00       7.00      
P-J1-37-31-41-2  J1-37-31-41-2    I5-37-31-3       396.15     0.013      0.00       0.00       0.00       9.00      
P-J1-37-31-42    J1-37-31-42      J1-37-31-41-2    37.51      0.013      0.00       0.00       0.00       9.00      
P-J1-37-31-43    J1-37-31-43      J1-37-31-10-A    406.99     0.013      0.00       0.00       0.00       7.00      
P-J1-37-31-46-A  J1-37-31-46-A    J1-37-31-42      305.57     0.013      0.00       0.00       0.00       9.00      
P-J1-37-31-47-2  J1-37-31-47-2    J1-37-31-46-A    51.59      0.013      0.00       0.00       0.00       9.00      
P-J1-37-31-48-1  J1-37-31-48-1    I5-37-31-47      193.34     0.013      0.00       0.00       0.00       9.00      
P-J1-37-31-49-2  J1-37-31-49-2    J1-37-31-48-1    165.81     0.013      0.00       0.00       0.00       9.00      
P-J1-37-31-5-A   J1-37-31-5-A     I5-37-31-5       259.28     0.013      0.00       0.00       0.00       1.50      
P-J1-37-31-6-A   J1-37-31-6-A     I5-37-31-6       175.82     0.013      0.00       0.00       0.00       1.50      
P-J1-37-31-9-A   J1-37-31-9-A     I5-37-31-9       105.01     0.013      0.00       0.00       0.00       7.00      
P-J1-37-32-52-2  J1-37-32-52-2    I5-37-31-50      481.67     0.013      0.00       0.00       0.00       9.00      

[XSECTIONS]
;;Link           Shape        Geom1      Geom2      Geom3      Geom4      Barrels
;;-------------- ------------ ---------- ---------- ---------- ---------- ----------
P-I1-35-31-18    CIRCULAR      1.20       0.00       0.000      0.00       1         
P-I1-35-32-54    CIRCULAR      1.20       0.00       0.000      0.00       1         
P-I1-36-31-133   CIRCULAR      1.20       0.00       0.000      0.00       1         
P-I1-36-31-136   CIRCULAR      1.20       0.00       0.000      0.00       1         
P-I1-36-31-141   CIRCULAR      1.20       0.00       0.000      0.00       1         
P-I1-36-31-146   CIRCULAR      1.20       0.00       0.000      0.00       1         
P-I1-36-31-151   CIRCULAR      1.20       0.00       0.000      0.00       1         
P-I1-36-31-155   CIRCULAR      1.20       0.00       0.000      0.00       1         
P-I1-36-31-156   CIRCULAR      1.20       0.00       0.000      0.00       1         
P-I1-36-31-176   CIRCULAR      1.20       0.00       0.000      0.00       1         
P-I1-36-31-177   CIRCULAR      1.20       0.00       0.000      0.00       1         
P-I1-36-31-179   CIRCULAR      1.20       0.00       0.000      0.00       1         
P-I1-36-31-180   CIRCULAR      1.20       0.00       0.000      0.00       1         
P-I1-36-31-181   CIRCULAR      1.20       0.00       0.000      0.00       1         
P-I1-36-31-33    CIRCULAR      1.20       0.00       0.000      0.00       1         
P-I1-36-31-46    CIRCULAR      1.20       0.00       0.000      0.00       1         
P-I1-36-31-51    CIRCULAR      1.20       0.00       0.000      0.00       1         
P-I1-36-31-52    CIRCULAR      1.20       0.00       0.000      0.00       1         
P-I1-36-32-13    CIRCULAR      1.20       0.00       0.000      0.00       1         
P-I1-36-32-57    CIRCULAR      1.20       0.00       0.000      0.00       1         
P-I1-36-32-59    CIRCULAR      1.20       0.00       0.000      0.00       1         
P-I1-36-32-63    CIRCULAR      1.20       0.00       0.000      0.00       1         
P-I1-36-32-66    CIRCULAR      1.20       0.00       0.000      0.00       1         
P-I1-36-32-70    CIRCULAR      1.20       0.00       0.000      0.00       1         
P-I1-37-31-22    CIRCULAR      1.20       0.00       0.000      0.00       1         
P-I1-37-31-23    CIRCULAR      1.20       0.00       0.000      0.00       1         
P-I1-37-31-25    CIRCULAR      1.20       0.00       0.000      0.00       1         
P-I1-37-31-41-1  CIRCULAR      1.20       0.00       0.000      0.00       1         
P-I1-37-31-42-2  CIRCULAR      1.50       0.00       0.000      0.00       1         
P-I1-37-31-47-1  CIRCULAR      1.20       0.00       0.000      0.00       1         
P-I1-37-31-48-2  CIRCULAR      1.20       0.00       0.000      0.00       1         
P-I1-37-31-49-1  CIRCULAR      1.20       0.00       0.000      0.00       1         
P-I1-37-31-49-3  CIRCULAR      1.20       0.00       0.000      0.00       1         
P-I1-37-32-42    CIRCULAR      1.20       0.00       0.000      0.00       1         
P-I1-37-32-43    CIRCULAR      1.20       0.00       0.000      0.00       1         
P-I1-37-32-52-1  CIRCULAR      1.20       0.00       0.000      0.00       1         
P-I1-37-32-53    CIRCULAR      1.20       0.00       0.000      0.00       1         
P-I2-36-31-31    CIRCULAR      1.20       0.00       0.000      0.00       1         
P-I2-36-31-32    CIRCULAR      1.20       0.00       0.000      0.00       1         
P-I2-36-31-36    CIRCULAR      1.20       0.00       0.000      0.00       1         
P-I2-36-31-37    CIRCULAR      1.20       0.00       0.000      0.00       1         
P-I2-36-31-50    CIRCULAR      1.20       0.00       0.000      0.00       1         
P-I2-36-31-53    CIRCULAR      1.20       0.00       0.000      0.00       1         
P-I2-36-31-55    CIRCULAR      1.20       0.00       0.000      0.00       1         
P-I2-37-31-18    CIRCULAR      1.20       0.00       0.000      0.00       1         
P-I2-37-31-19    CIRCULAR      1.20       0.00       0.000      0.00       1         
P-I2-37-31-20    CIRCULAR      1.20       0.00       0.000      0.00       1         