[TITLE]
INP file created by FLO-2D

[OPTIONS]
FLOW_UNITS           CFS
INFILTRATION         HORTON
FLOW_ROUTING         DYNWAVE
START_DATE           08/12/2024
START_TIME           00:00:00
REPORT_START_DATE    08/12/2024
REPORT_START_TIME    00:00:00
END_DATE             08/12/2024
END_TIME             00:06:00
SWEEP_START          01/01
SWEEP_END            12/31
DRY_DAYS             0
REPORT_STEP          00:06:00
WET_STEP             00:05:00
DRY_STEP             01:00:00
ROUTING_STEP         00:01:00
ALLOW_PONDING        NO
INERTIAL_DAMPING     PARTIAL
VARIABLE_STEP        0.75
LENGTHENING_STEP     0
MIN_SURFAREA         0
NORMAL_FLOW_LIMITED  BOTH
SKIP_STEADY_STATE    NO
FORCE_MAIN_EQUATION  H-W
LINK_OFFSETS         DEPTH
MIN_SLOPE            0.01

[JUNCTIONS]
;;               Invert     Max.       Init.      Surcharge  Ponded
;;Name           Elev.      Depth      Depth      Depth      Area
;;-------------- ---------- ---------- ---------- ---------- ----------
I1-35-31-18      1399.43    15.00      0.00       0.00       0.00      
I1-35-32-54      1399.43    15.00      0.00       0.00       0.00      
I1-36-30-36      1401.93    4.50       0.00       0.00       0.00      
I1-36-30-44      1402.20    3.80       0.00       0.00       0.00      
I1-36-30-45      1404.50    3.50       0.00       0.00       0.00      
I1-36-31-133     1405.73    4.80       0.00       0.00       0.00      
I1-36-31-136     1405.93    4.60       0.00       0.00       0.00      
I1-36-31-141     1407.14    3.80       0.00       0.00       0.00      
I1-36-31-146     1405.52    6.70       0.00       0.00       0.00      
I1-36-31-151     1407.75    3.90       0.00       0.00       0.00      
I1-36-31-155     1407.99    5.30       0.00       0.00       0.00      
I1-36-31-156     1409.16    3.30       0.00       0.00       0.00      
I1-36-31-176     1409.52    4.10       0.00       0.00       0.00      
I1-36-31-177     1406.07    7.50       0.00       0.00       0.00      
I1-36-31-179     1409.48    6.40       0.00       0.00       0.00      
I1-36-31-180     1414.37    4.50       0.00       0.00       0.00      
I1-36-31-181     1419.97    4.50       0.00       0.00       0.00      
I1-36-31-33      1407.51    10.00      0.00       0.00       0.00      
I1-36-31-34      1404.00    4.80       0.00       0.00       0.00      
I1-36-31-35      1404.60    3.80       0.00       0.00       0.00      
I1-36-31-40      1402.60    3.60       0.00       0.00       0.00      
I1-36-31-41      1402.30    4.00       0.00       0.00       0.00      
I1-36-31-42      1402.60    4.00       0.00       0.00       0.00      
I1-36-31-43      1403.90    3.50       0.00       0.00       0.00      
I1-36-31-44      1400.20    3.20       0.00       0.00       0.00      
I1-36-31-45      1400.70    4.20       0.00       0.00       0.00      
I1-36-31-46      1402.20    3.80       0.00       0.00       0.00      
I1-36-31-51      1406.10    3.10       0.00       0.00       0.00      
I1-36-31-52      1404.72    5.90       0.00       0.00       0.00      
I1-36-32-12      1427.48    4.10       0.00       0.00       0.00      
I1-36-32-13      1409.59    17.00      0.00       0.00       0.00      
I1-36-32-14      1424.77    4.20       0.00       0.00       0.00      
I1-36-32-15      1419.75    7.40       0.00       0.00       0.00      
I1-36-32-57      1404.16    9.60       0.00       0.00       0.00      
I1-36-32-59      1409.10    5.30       0.00       0.00       0.00      
I1-36-32-63      1409.78    5.50       0.00       0.00       0.00      
I1-36-32-66      1413.07    5.70       0.00       0.00       0.00      
I1-36-32-70      1420.91    4.40       0.00       0.00       0.00      
I1-37-30-18      1407.00    5.90       0.00       0.00       0.00      
I1-37-30-19      1400.13    10.00      0.00       0.00       0.00      
I1-37-30-20      1399.38    8.00       0.00       0.00       0.00      
I1-37-30-21      1398.51    9.30       0.00       0.00       0.00      
I1-37-30-22      1411.95    4.40       0.00       0.00       0.00      
I1-37-30-23      1411.07    4.30       0.00       0.00       0.00      
I1-37-31-13      1409.60    3.10       0.00       0.00       0.00      
I1-37-31-16      1400.14    11.00      0.00       0.00       0.00      
I1-37-31-22      1407.51    10.00      0.00       0.00       0.00      
I1-37-31-23      1408.13    10.00      0.00       0.00       0.00      
I1-37-31-25      1409.75    10.00      0.00       0.00       0.00      
I1-37-31-26      1411.95    4.70       0.00       0.00       0.00      
I1-37-31-27      1408.80    10.00      0.00       0.00       0.00      
I1-37-31-29      1411.68    4.30       0.00       0.00       0.00      
I1-37-31-30      1411.90    4.20       0.00       0.00       0.00      
I1-37-31-41-1    1422.30    3.90       0.00       0.00       0.00      
I1-37-31-42-2    1418.60    7.90       0.00       0.00       0.00      
I1-37-31-47-1    1424.04    4.20       0.00       0.00       0.00      
I1-37-31-48-2    1425.37    5.00       0.00       0.00       0.00      
I1-37-31-49-1    1426.70    4.40       0.00       0.00       0.00      
I1-37-31-49-3    1426.70    4.20       0.00       0.00       0.00      
I1-37-32-33-1    1433.10    7.00       0.00       0.00       0.00      
I1-37-32-37      1422.86    5.10       0.00       0.00       0.00      
I1-37-32-38      1423.86    4.20       0.00       0.00       0.00      
I1-37-32-39      1424.25    8.30       0.00       0.00       0.00      
I1-37-32-40      1422.99    8.70       0.00       0.00       0.00      
I1-37-32-42      1409.64    17.00      0.00       0.00       0.00      
I1-37-32-43      1424.04    3.90       0.00       0.00       0.00      
I1-37-32-52-1    1429.37    4.60       0.00       0.00       0.00      
I1-37-32-53      1426.39    7.20       0.00       0.00       0.00      
I1-37-32-55      1437.81    3.90       0.00       0.00       0.00      
I1-37-32-56      1437.22    4.10       0.00       0.00       0.00      
I1-37-32-57      1427.37    4.00       0.00       0.00       0.00      
I1-37-32-59      1429.39    4.00       0.00       0.00       0.00      
I1-38-30-12      1415.77    4.10       0.00       0.00       0.00      
I1-38-30-13      1420.55    4.80       0.00       0.00       0.00      
I1-38-30-14      1414.65    4.20       0.00       0.00       0.00      
I1-38-31-31      1413.98    5.30       0.00       0.00       0.00      
I1-38-32-42      1434.80    4.20       0.00       0.00       0.00      
I2-35-32-52      1412.60    6.40       0.00       0.00       0.00      
I2-35-32-53      1413.60    4.60       0.00       0.00       0.00      
I2-35-32-62      1416.10    4.90       0.00       0.00       0.00      
I2-35-32-63      1415.30    5.70       0.00       0.00       0.00      
I2-35-32-64      1416.30    4.00       0.00       0.00       0.00      
I2-35-32-74      1415.60    4.10       0.00       0.00       0.00      
I2-35-32-75      1414.60    4.10       0.00       0.00       0.00      
I2-36-30-38      1388.04    3.70       0.00       0.00       0.00      
I2-36-30-39      1387.20    4.20       0.00       0.00       0.00      
I2-36-30-40      1391.40    3.20       0.00       0.00       0.00      
I2-36-30-41      1390.40    5.50       0.00       0.00       0.00      
I2-36-30-46      1397.40    5.00       0.00       0.00       0.00      
I2-36-30-47      1398.90    3.70       0.00       0.00       0.00      
I2-36-30-49      1395.10    5.50       0.00       0.00       0.00      
I2-36-30-50      1396.30    4.00       0.00       0.00       0.00      
I2-36-30-71      1397.00    2.20       0.00       0.00       0.00      
I2-36-31-30      1406.22    5.20       0.00       0.00       0.00      
I2-36-31-31      1408.27    5.40       0.00       0.00       0.00      
I2-36-31-32      1409.08    5.00       0.00       0.00       0.00      
I2-36-31-36      1408.60    4.40       0.00       0.00       0.00      
I2-36-31-37      1407.70    6.30       0.00       0.00       0.00      
I2-36-31-50      1404.80    6.90       0.00       0.00       0.00      
I2-36-31-53      1403.80    3.80       0.00       0.00       0.00      
I2-36-31-55      1407.40    4.00       0.00       0.00       0.00      
I2-37-31-17      1405.53    6.50       0.00       0.00       0.00      
I2-37-31-18      1405.26    8.30       0.00       0.00       0.00      
I2-37-31-19      1405.87    8.20       0.00       0.00       0.00      
I2-37-31-20      1409.98    5.50       0.00       0.00       0.00      
I2-37-31-21      1412.22    4.50       0.00       0.00       0.00      
I2-37-32-35-B    1427.37    4.10       0.00       0.00       0.00      
I2-37-32-54      1436.65    4.00       0.00       0.00       0.00      
I2-38-32-41      1435.52    3.90       0.00       0.00       0.00      
I3-36-31-165     1408.23    4.20       0.00       0.00       0.00      
I3-36-31-167     1407.72    4.20       0.00       0.00       0.00      
I3-36-31-168     1407.47    4.00       0.00       0.00       0.00      
I3-36-31-171     1410.50    4.60       0.00       0.00       0.00      
I3-36-31-173     1409.26    4.40       0.00       0.00       0.00      
I3-37-31-15      1400.60    11.00      0.00       0.00       0.00      
I3-37-31-24      1413.34    9.50       0.00       0.00       0.00      
I3-37-31-28      1411.79    3.70       0.00       0.00       0.00      
I3-37-31-42-3    1420.80    5.70       0.00       0.00       0.00      
I3-37-32-48      1417.00    4.10       0.00       0.00       0.00      
I3-37-32-49      1416.26    7.30       0.00       0.00       0.00      
I3-37-32-50      1415.69    6.10       0.00       0.00       0.00      
I3-37-32-51      1417.00    4.60       0.00       0.00       0.00      
I3-37-32-52      1417.00    4.00       0.00       0.00       0.00      
I3-38-32-36      1425.00    4.30       0.00       0.00       0.00      
I3-38-32-37      1430.50    4.90       0.00       0.00       0.00      
I4-37-32-26-1    1418.80    4.00       0.00       0.00       0.00      
I4-37-32-41      1427.40    1.00       0.00       0.00       0.00      
I4-37-32-44      1429.88    1.00       0.00       0.00       0.00      
I4-37-32-45      1427.32    1.00       0.00       0.00       0.00      
I4-37-32-46      1427.09    1.00       0.00       0.00       0.00      
I4-37-32-60      1431.57    1.00       0.00       0.00       0.00      
I5-35-32-14-A    1400.70    13.00      0.00       0.00       0.00      
I5-35-32-34      1397.18    19.00      0.00       0.00       0.00      
I5-35-32-93      1397.25    17.00      0.00       0.00       0.00      
I5-36-30-27      1387.42    19.00      0.00       0.00       0.00      
I5-36-30-28      1386.63    17.00      0.00       0.00       0.00      
I5-36-30-30      1391.79    18.00      0.00       0.00       0.00      
I5-36-30-31      1386.48    16.00      0.00       0.00       0.00      
I5-36-30-32      1388.69    19.00      0.00       0.00       0.00      
I5-36-31-1       1408.94    18.00      0.00       0.00       0.00      
I5-36-31-134     1392.48    19.00      0.00       0.00       0.00      
I5-36-31-140     1404.77    6.80       0.00       0.00       0.00      
I5-36-31-148     1395.45    17.00      0.00       0.00       0.00      
I5-36-31-149     1405.25    6.30       0.00       0.00       0.00      
I5-36-31-170     1397.76    17.00      0.00       0.00       0.00      
I5-36-31-49      1406.10    3.50       0.00       0.00       0.00      
I5-36-31-74      1392.38    17.00      0.00       0.00       0.00      
I5-36-31-74-1    1392.48    17.00      0.00       0.00       0.00      
I5-36-32-55      1399.53    15.00      0.00       0.00       0.00      
I5-36-32-61      1403.17    15.00      0.00       0.00       0.00      
I5-36-32-65      1405.69    18.00      0.00       0.00       0.00      
I5-37-30-10      1398.00    8.70       0.00       0.00       0.00      
I5-37-30-12      1406.29    12.00      0.00       0.00       0.00      
I5-37-30-314     1403.40    12.00      0.00       0.00       0.00      
I5-37-30-8       1396.11    16.00      0.00       0.00       0.00      
I5-37-30-9       1396.00    12.00      0.00       0.00       0.00      
I5-37-31-10      1404.36    19.00      0.00       0.00       0.00      
I5-37-31-12      1397.38    16.00      0.00       0.00       0.00      
I5-37-31-3       1409.96    17.00      0.00       0.00       0.00      
I5-37-31-47      1412.57    16.00      0.00       0.00       0.00      
I5-37-31-5       1404.10    10.00      0.00       0.00       0.00      
I5-37-31-50      1413.13    18.00      0.00       0.00       0.00      
I5-37-31-6       1404.41    10.00      0.00       0.00       0.00      
I5-37-31-7       1406.98    9.80       0.00       0.00       0.00      
I5-37-31-9       1399.36    19.00      0.00       0.00       0.00      
I5-37-32-27      1413.85    8.60       0.00       0.00       0.00      
I5-37-32-28      1415.30    7.10       0.00       0.00       0.00      
I5-37-32-29      1409.95    18.00      0.00       0.00       0.00      
I5-37-32-30      1412.24    17.00      0.00       0.00       0.00      
I5-37-32-32      1414.10    20.00      0.00       0.00       0.00      
I5-37-32-33      1431.90    4.30       0.00       0.00       0.00      
I5-37-32-34      1414.43    9.40       0.00       0.00       0.00      
I5-37-32-35      1413.28    18.00      0.00       0.00       0.00      
I5-37-32-36      1410.59    17.00      0.00       0.00       0.00      
I5-38-30-5       1420.55    5.10       0.00       0.00       0.00      
I5-38-30-6       1408.09    11.00      0.00       0.00       0.00      
I5-38-32-26      1418.25    13.00      0.00       0.00       0.00      
I5-38-32-27      1419.48    12.00      0.00       0.00       0.00      
Ids1             1380.00    15.00      0.00       0.00       0.00      
Ids2             1382.00    13.00      0.00       0.00       0.00      
Ids3             1384.00    11.00      0.00       0.00       0.00      
Ids4             1386.00    9.00       0.00       0.00       0.00      
J1-35-32-14      1397.55    17.00      0.00       0.00       0.00      
J1-35-32-34-A    1397.43    17.00      0.00       0.00       0.00      
J1-35-32-34-B    1397.40    17.00      0.00       0.00       0.00      
J1-35-32-83      1414.30    6.80       0.00       0.00       0.00      
J1-35-32-87      1413.80    6.00       0.00       0.00       0.00      
J1-36-30-27-A    1388.57    19.00      0.00       0.00       0.00      
J1-36-30-27-B    1388.07    19.00      0.00       0.00       0.00      
J1-36-30-27-C    1387.50    19.00      0.00       0.00       0.00      
J1-36-30-28-A    1387.30    19.00      0.00       0.00       0.00      
J1-36-30-28-B    1387.20    19.00      0.00       0.00       0.00      
J1-36-30-28-C    1387.12    19.00      0.00       0.00       0.00      
J1-36-30-29-A    1395.80    4.20       0.00       0.00       0.00      
J1-36-30-32-A    1388.98    19.00      0.00       0.00       0.00      
J1-36-30-32-B    1388.81    19.00      0.00       0.00       0.00      
J1-36-31-1-B     1409.52    18.00      0.00       0.00       0.00      
J1-36-31-134-A   1393.11    18.00      0.00       0.00       0.00      
J1-36-31-134-C   1392.83    18.00      0.00       0.00       0.00      
J1-36-31-134-D   1392.60    17.00      0.00       0.00       0.00      
J1-36-31-134-E   1392.50    17.00      0.00       0.00       0.00      
J1-36-31-148-A   1397.36    17.00      0.00       0.00       0.00      
J1-36-31-148-B   1396.29    17.00      0.00       0.00       0.00      
J1-36-31-165-O   1395.31    17.00      0.00       0.00       0.00      
J1-36-31-183     1393.24    18.00      0.00       0.00       0.00      
J1-36-31-183-A   1394.79    17.00      0.00       0.00       0.00      
J1-36-31-183-B   1394.26    17.00      0.00       0.00       0.00      
J1-36-31-183-C   1394.19    17.00      0.00       0.00       0.00      
J1-36-31-26-A    1392.36    16.00      0.00       0.00       0.00      
J1-36-31-26-B    1392.35    17.00      0.00       0.00       0.00      
J1-36-31-48      1405.30    4.70       0.00       0.00       0.00      
J1-36-31-62      1398.60    18.00      0.00       0.00       0.00      
J1-36-31-62-A    1398.67    18.00      0.00       0.00       0.00      
J1-36-31-64      1408.71    18.00      0.00       0.00       0.00      
J1-36-32-24-A    1398.48    15.00      0.00       0.00       0.00      
J1-36-32-24-B    1398.05    15.00      0.00       0.00       0.00      
J1-36-32-24-C    1398.00    15.00      0.00       0.00       0.00      
J1-36-32-24-D    1397.92    16.00      0.00       0.00       0.00      
J1-36-32-55-A    1399.67    15.00      0.00       0.00       0.00      
J1-36-32-61-A    1403.43    15.00      0.00       0.00       0.00      
J1-36-32-61-B    1403.39    15.00      0.00       0.00       0.00      
J1-36-32-65-A    1407.56    17.00      0.00       0.00       0.00      
J1-36-32-65-B    1405.99    18.00      0.00       0.00       0.00      
J1-37-30-17-B    1395.19    16.00      0.00       0.00       0.00      
J1-37-30-2-B     1401.48    14.00      0.00       0.00       0.00      
J1-37-30-29      1394.70    17.00      0.00       0.00       0.00      
J1-37-30-3-A     1405.06    11.00      0.00       0.00       0.00      
J1-37-30-3-C     1403.88    12.00      0.00       0.00       0.00      
J1-37-30-31      1393.99    17.00      0.00       0.00       0.00      
J1-37-30-31-A    1394.62    17.00      0.00       0.00       0.00      
J1-37-30-31-B    1394.60    17.00      0.00       0.00       0.00      
J1-37-30-31-D    1394.13    17.00      0.00       0.00       0.00      
J1-37-30-9-A     1397.13    10.00      0.00       0.00       0.00      
J1-37-31-1-A     1413.28    20.00      0.00       0.00       0.00      
J1-37-31-10-A    1405.76    17.00      0.00       0.00       0.00      
J1-37-31-12-B    1400.07    14.00      0.00       0.00       0.00      
J1-37-31-2       1401.68    19.00      0.00       0.00       0.00      
J1-37-31-32      1401.45    14.00      0.00       0.00       0.00      
J1-37-31-41-2    1411.31    14.00      0.00       0.00       0.00      
J1-37-31-42      1411.52    14.00      0.00       0.00       0.00      
J1-37-31-43      1409.10    18.00      0.00       0.00       0.00      
J1-37-31-46-A    1412.37    15.00      0.00       0.00       0.00      
J1-37-31-47-2    1412.43    15.00      0.00       0.00       0.00      
J1-37-31-48-1    1412.79    17.00      0.00       0.00       0.00      
J1-37-31-49-2    1412.97    18.00      0.00       0.00       0.00      
J1-37-31-5-A     1404.10    10.00      0.00       0.00       0.00      
J1-37-31-6-A     1405.53    10.00      0.00       0.00       0.00      
J1-37-31-9-A     1400.24    18.00      0.00       0.00       0.00      
J1-37-32-1       1414.18    8.40       0.00       0.00       0.00      
J1-37-32-2       1414.16    8.30       0.00       0.00       0.00      
J1-37-32-26      1413.30    20.00      0.00       0.00       0.00      
J1-37-32-29-A    1410.27    18.00      0.00       0.00       0.00      
J1-37-32-29-B    1410.24    18.00      0.00       0.00       0.00      
J1-37-32-3       1413.70    8.70       0.00       0.00       0.00      
J1-37-32-30-A    1412.66    18.00      0.00       0.00       0.00      
J1-37-32-32-B    1417.52    16.00      0.00       0.00       0.00      
J1-37-32-35-A    1413.76    19.00      0.00       0.00       0.00      
J1-37-32-35-B    1413.53    19.00      0.00       0.00       0.00      
J1-37-32-35-D    1413.38    18.00      0.00       0.00       0.00      
J1-37-32-52-2    1413.25    20.00      0.00       0.00       0.00      
J1-37-32-6-A     1413.83    8.50       0.00       0.00       0.00      
J1-37-32-61      1414.62    10.00      0.00       0.00       0.00      
J1-37-32-61-A    1414.99    21.00      0.00       0.00       0.00      
J1-37-32-62      1414.62    7.30       0.00       0.00       0.00      
J1-38-30-5       1411.02    14.00      0.00       0.00       0.00      
J1-38-30-6-A     1409.93    10.00      0.00       0.00       0.00      
J1-38-32-14      1416.54    10.00      0.00       0.00       0.00      
J3-38-32-2       1419.80    10.00      0.00       0.00       0.00      
J3-38-32-38      1425.50    8.00       0.00       0.00       0.00      
J5-37-30-2       1400.66    14.00      0.00       0.00       0.00      

[OUTFALLS]
;;               Invert     Outfall      Stage/Table       Tide
;;Name           Elev.      Type         Time Series       Gate
;;-------------- ---------- ------------ ----------------  ----
O-35-31-23       1397.16    FREE                           NO              
O-35-31-9        1396.70    FREE                           NO              
O-35-32-35-A     1403.30    FREE                           NO              
O-35-32-42-B     1405.20    FREE                           NO              
O-35-32-46-B     1404.60    FREE                           NO              
O-35-32-46-C     1404.20    FREE                           NO              
O-36-30-1        1380.30    FREE                           NO              
O-36-30-10       1386.60    FREE                           NO              
O-36-30-106      1381.61    FREE                           NO              
O-36-30-11       1383.80    FREE                           NO              
O-36-30-21-A     1387.19    FREE                           NO              
O-36-30-67       1385.50    FREE                           NO              
O-36-30-96       1385.50    FREE                           NO              
O-36-31-11       1394.10    FREE                           NO              
O-36-31-13       1392.15    FREE                           NO              
O-36-31-14       1394.80    FREE                           NO              
O-36-31-23       1387.97    FREE                           NO              
O-36-31-28       1389.02    FREE                           NO              
Ocistern         1380.00    FREE                           YES             

[STORAGE]
;;               Invert   Max.     Init.    Storage    Curve                      Ponded   Evap.
;;Name           Elev.    Depth    Depth    Curve      Params                     Area     Frac.    Infiltration Parameters
;;-------------- -------- -------- -------- ---------- -------- -------- -------- -------- -------- -----------------------
Cistern1         1385     9        0        TABULAR    Storage1                   0        0       
Cistern2         1385     9        0        TABULAR    Storage1                   0        0       
Cistern3         1385     9        0        TABULAR    Storage1                   0        0       

[CONDUITS]
;;               Inlet            Outlet                      Manning    Inlet      Outlet     Init.      Max.
;;Name           Node             Node             Length     N          Offset     Offset     Flow       Flow
;;-------------- ---------------- ---------------- ---------- ---------- ---------- ---------- ---------- ----------
DS2-1            Ids2             Ids1             123.70     0.018      0.00       0.00       0.00       0.00      
DS3-2            Ids3             Ids2             180.02     0.018      0.00       0.00       0.00       0.00      
DS4-3            Ids4             Ids3             152.99     0.018      0.00       0.00       0.00       0.00      
P-I1-35-31-18    I1-35-31-18      J1-35-32-34-A    33.00      0.013      0.00       0.00       0.00       0.00      
P-I1-35-32-54    I1-35-32-54      J1-35-32-34-B    7.00       0.013      0.00       0.00       0.00       0.00      
P-I1-36-30-36    I1-36-30-36      I5-37-30-10      50.01      0.013      0.00       0.00       0.00       0.00      
P-I1-36-30-44    I1-36-30-44      J1-36-30-28-B    46.51      0.013      0.00       0.00       0.00       0.00      
P-I1-36-30-45    I1-36-30-45      J1-36-30-27-A    47.00      0.013      0.00       0.00       0.00       0.00      
P-I1-36-31-133   I1-36-31-133     J1-36-31-134-E   36.25      0.013      0.00       0.00       0.00       0.00      
P-I1-36-31-136   I1-36-31-136     J1-36-31-134-D   14.00      0.013      0.00       0.00       0.00       0.00      
P-I1-36-31-141   I1-36-31-141     J1-36-31-134-C   24.00      0.013      0.00       0.00       0.00       0.00      
P-I1-36-31-146   I1-36-31-146     J1-36-31-134-A   8.73       0.013      0.00       0.00       0.00       0.00      
P-I1-36-31-151   I1-36-31-151     I5-36-31-149     24.00      0.013      0.00       0.00       0.00       0.00      
P-I1-36-31-155   I1-36-31-155     J1-36-31-183-C   85.33      0.013      0.00       0.00       0.00       0.00      
P-I1-36-31-156   I1-36-31-156     I1-36-31-155     26.51      0.013      0.00       0.00       0.00       0.00      
P-I1-36-31-176   I1-36-31-176     J1-36-32-24-D    31.53      0.013      0.00       0.00       0.00       0.00      
P-I1-36-31-177   I1-36-31-177     J1-36-32-24-B    30.83      0.013      0.00       0.00       0.00       0.00      
P-I1-36-31-179   I1-36-31-179     J1-36-32-55-A    30.00      0.013      0.00       0.00       0.00       0.00      
P-I1-36-31-180   I1-36-31-180     J1-36-32-61-A    30.00      0.013      0.00       0.00       0.00       0.00      
P-I1-36-31-181   I1-36-31-181     J1-36-32-65-B    27.54      0.013      0.00       0.00       0.00       0.00      
P-I1-36-31-33    I1-36-31-33      J1-36-31-62-A    32.00      0.013      0.00       0.00       0.00       0.00      
P-I1-36-31-34    I1-36-31-34      J1-36-30-32-A    16.00      0.013      0.00       0.00       0.00       0.00      
P-I1-36-31-35    I1-36-31-35      J1-36-30-32-B    12.00      0.013      0.00       0.00       0.00       0.00      
P-I1-36-31-40    I1-36-31-40      J1-36-30-28-C    11.00      0.013      0.00       0.00       0.00       0.00      
P-I1-36-31-41    I1-36-31-41      J1-36-30-28-A    56.01      0.013      0.00       0.00       0.00       0.00      
P-I1-36-31-42    I1-36-31-42      J1-36-30-27-C    12.00      0.013      0.00       0.00       0.00       0.00      
P-I1-36-31-43    I1-36-31-43      J1-36-30-27-B    12.00      0.013      0.00       0.00       0.00       0.00      
P-I1-36-31-44    I1-36-31-44      O-36-30-21-A     126.89     0.013      0.00       0.00       0.00       0.00      
P-I1-36-31-45    I1-36-31-45      I1-36-31-44      47.76      0.013      0.00       0.00       0.00       0.00      
P-I1-36-31-46    I1-36-31-46      O-36-31-23       99.58      0.013      0.00       0.00       0.00       0.00      
P-I1-36-31-51    I1-36-31-51      J1-36-31-26-B    24.66      0.013      0.00       0.00       0.00       0.00      
P-I1-36-31-52    I1-36-31-52      J1-36-31-26-A    10.00      0.013      0.00       0.00       0.00       0.00      
P-I1-36-32-12    I1-36-32-12      J1-37-32-35-D    51.01      0.013      0.00       0.00       0.00       0.00      
P-I1-36-32-13    I1-36-32-13      J1-36-31-1-B     48.01      0.013      0.00       0.00       0.00       0.00      
P-I1-36-32-14    I1-36-32-14      I5-37-32-30      52.01      0.013      0.00       0.00       0.00       0.00      
P-I1-36-32-15    I1-36-32-15      I5-37-32-36      53.01      0.013      0.00       0.00       0.00       0.00      
P-I1-36-32-57    I1-36-32-57      J1-36-32-24-C    6.94       0.013      0.00       0.00       0.00       0.00      
P-I1-36-32-59    I1-36-32-59      J1-36-32-24-A    9.01       0.013      0.00       0.00       0.00       0.00      
P-I1-36-32-63    I1-36-32-63      J1-36-32-55-A    9.40       0.013      0.00       0.00       0.00       0.00      
P-I1-36-32-66    I1-36-32-66      J1-36-32-61-B    8.76       0.013      0.00       0.00       0.00       0.00      
P-I1-36-32-70    I1-36-32-70      J1-36-32-65-A    38.82      0.013      0.00       0.00       0.00       0.00      
P-I1-37-30-18    I1-37-30-18      I5-37-30-8       25.00      0.013      0.00       0.00       0.00       0.00      
P-I1-37-30-19    I1-37-30-19      J1-37-30-31-D    27.00      0.013      0.00       0.00       0.00       0.00      
P-I1-37-30-20    I1-37-30-20      I5-37-30-10      42.00      0.013      0.00       0.00       0.00       0.00      
P-I1-37-30-21    I1-37-30-21      J1-37-30-9-A     42.00      0.013      0.00       0.00       0.00       0.00      
P-I1-37-30-22    I1-37-30-22      J1-37-30-3-C     23.50      0.013      0.00       0.00       0.00       0.00      
P-I1-37-30-23    I1-37-30-23      J5-37-30-2       25.30      0.013      0.00       0.00       0.00       0.00      
P-I1-37-31-13    I1-37-31-13      I5-37-30-8       37.00      0.013      0.00       0.00       0.00       0.00      
P-I1-37-31-16    I1-37-31-16      J1-37-30-31-D    37.28      0.013      0.00       0.00       0.00       0.00      
P-I1-37-31-22    I1-37-31-22      I5-37-31-9       41.79      0.013      0.00       0.00       0.00       0.00      
P-I1-37-31-23    I1-37-31-23      J1-37-31-9-A     39.14      0.013      0.00       0.00       0.00       0.00      
P-I1-37-31-25    I1-37-31-25      J1-37-31-2       40.20      0.013      0.00       0.00       0.00       0.00      
P-I1-37-31-26    I1-37-31-26      J1-37-30-3-C     43.00      0.013      0.00       0.00       0.00       0.00      
P-I1-37-31-27    I1-37-31-27      I5-37-30-12      73.01      0.013      0.00       0.00       0.00       0.00      
P-I1-37-31-29    I1-37-31-29      J1-37-30-2-B     38.59      0.013      0.00       0.00       0.00       0.00      
P-I1-37-31-30    I1-37-31-30      J1-37-30-2-B     22.89      0.013      0.00       0.00       0.00       0.00      
P-I1-37-31-41-1  I1-37-31-41-1    J1-37-31-41-2    11.33      0.013      0.00       0.00       0.00       0.00      
P-I1-37-31-42-2  I1-37-31-42-2    J1-37-31-42      27.40      0.013      0.00       0.00       0.00       0.00      
P-I1-37-31-47-1  I1-37-31-47-1    J1-37-31-47-2    16.43      0.013      0.00       0.00       0.00       0.00      