[TITLE]
INP file created by FLO-2D

[OPTIONS]
FLOW_UNITS           CFS
INFILTRATION         HORTON
FLOW_ROUTING         DYNWAVE
START_DATE           06/28/2025
START_TIME           00:00:00
REPORT_START_DATE    06/28/2025
REPORT_START_TIME    00:00:00
END_DATE             06/28/2025
END_TIME             10:00:00
SWEEP_START          01/01
SWEEP_END            12/31
DRY_DAYS             0
REPORT_STEP          00:06:00
WET_STEP             00:05:00
DRY_STEP             01:00:00
ROUTING_STEP         00:01:00
ALLOW_PONDING        NO
INERTIAL_DAMPING     PARTIAL
VARIABLE_STEP        0.75
LENGTHENING_STEP     0
MIN_SURFAREA         0
NORMAL_FLOW_LIMITED  BOTH
SKIP_STEADY_STATE    NO
FORCE_MAIN_EQUATION  H-W
LINK_OFFSETS         DEPTH
MIN_SLOPE            0.01

[JUNCTIONS]
;;               Invert     Max.       Init.      Surcharge  Ponded
;;Name           Elev.      Depth      Depth      Depth      Area
;;-------------- ---------- ---------- ---------- ---------- ----------
I1-36-32-12      1427.48    4.10       0.00       0.00       0.00      
I1-37-32-39      1424.25    8.30       0.00       0.00       0.00      
I1-37-32-40      1422.99    8.70       0.00       0.00       0.00      
I1-37-32-57      1427.37    4.00       0.00       0.00       0.00      
I1-37-32-59      1429.39    4.00       0.00       0.00       0.00      
I2-35-32-52      1412.60    6.40       0.00       0.00       0.00      
I2-35-32-53      1413.60    4.60       0.00       0.00       0.00      
I2-35-32-62      1416.10    4.90       0.00       0.00       0.00      
I2-35-32-63      1415.30    5.70       0.00       0.00       0.00      
I2-35-32-64      1416.30    4.00       0.00       0.00       0.00      
I2-35-32-74      1415.60    4.10       0.00       0.00       0.00      
I2-35-32-75      1414.60    4.10       0.00       0.00       0.00      
I2-37-32-35-B    1427.37    4.10       0.00       0.00       0.00      
I3-38-32-36      1425.00    4.30       0.00       0.00       0.00      
I4-37-32-44      1429.88    1.00       0.00       0.00       0.00      
I4-37-32-60      1431.57    1.00       0.00       0.00       0.00      
I5-37-32-32      1414.10    20.00      0.00       0.00       0.00      
I5-37-32-35      1413.28    18.00      0.00       0.00       0.00      
I5-38-32-26      1418.25    13.00      0.00       0.00       0.00      
I5-38-32-27      1419.48    12.00      0.00       0.00       0.00      
J1-35-32-83      1414.30    6.80       0.00       0.00       0.00      
J1-35-32-87      1413.80    6.00       0.00       0.00       0.00      
J1-37-32-30-A    1412.66    18.00      0.00       0.00       0.00      
J1-37-32-32-B    1417.52    16.00      0.00       0.00       0.00      
J1-37-32-35-A    1413.76    19.00      0.00       0.00       0.00      
J1-37-32-35-B    1413.53    19.00      0.00       0.00       0.00      
J1-37-32-35-D    1413.38    18.00      0.00       0.00       0.00      
J3-38-32-2       1419.80    10.00      0.00       0.00       0.00      
J3-38-32-38      1425.50    8.00       0.00       0.00       0.00      

[OUTFALLS]
;;               Invert     Outfall      Stage/Table       Tide
;;Name           Elev.      Type         Time Series       Gate
;;-------------- ---------- ------------ ----------------  ----
O-35-32-35-A     1403.30    FREE                           NO              
O-35-32-42-B     1405.20    FREE                           NO              
O-35-32-46-B     1404.60    FREE                           NO              
O-35-32-46-C     1404.20    FREE                           NO              

[CONDUITS]
;;               Inlet            Outlet                      Manning    Inlet      Outlet     Init.      Max.
;;Name           Node             Node             Length     N          Offset     Offset     Flow       Flow
;;-------------- ---------------- ---------------- ---------- ---------- ---------- ---------- ---------- ----------
P-I1-36-32-12    I1-36-32-12      J1-37-32-35-D    51.01      0.013      0.00       0.00       0.00       1.20      
P-I1-37-32-39    I1-37-32-39      J1-37-32-35-B    42.00      0.013      0.00       0.00       0.00       1.20      
P-I1-37-32-40    I1-37-32-40      J1-37-32-35-D    40.12      0.013      0.00       0.00       0.00       1.20      
P-I1-37-32-44    I4-37-32-44      J1-37-32-30-A    43.50      0.013      0.00       0.00       0.00       1.20      
P-I1-37-32-57    I1-37-32-57      I2-37-32-35-B    26.00      0.013      0.00       0.00       0.00       1.20      
P-I1-37-32-59    I1-37-32-59      J1-37-32-32-B    48.80      0.013      0.00       0.00       0.00       1.20      
P-I1-37-32-60    I4-37-32-60      J1-37-32-35-A    42.00      0.013      0.00       0.00       0.00       1.20      
P-I2-35-32-52    I2-35-32-52      O-35-32-35-A     98.50      0.013      0.00       0.00       0.00       1.20      
P-I2-35-32-53    I2-35-32-53      I2-35-32-52      38.66      0.013      0.00       0.00       0.00       1.20      
P-I2-35-32-62    I2-35-32-62      I2-35-32-63      29.02      0.013      0.00       0.00       0.00       1.20      
P-I2-35-32-63    I2-35-32-63      J1-35-32-83      86.62      0.013      0.00       0.00       0.00       1.20      
P-I2-35-32-64    I2-35-32-64      O-35-32-46-B     86.86      0.013      0.00       0.00       0.00       1.20      
P-I2-35-32-74    I2-35-32-74      J1-35-32-87      107.34     0.013      0.00       0.00       0.00       1.20      
P-I2-35-32-75    I2-35-32-75      I2-35-32-53      50.76      0.013      0.00       0.00       0.00       1.20      
P-I2-37-32-35-B  I2-37-32-35-B    I5-37-32-35      42.80      0.013      0.00       0.00       0.00       2.00      
P-I3-38-32-2     J3-38-32-2       I5-38-32-27      373.94     0.013      0.00       0.00       0.00       6.00      
P-I3-38-32-36    I3-38-32-36      I5-38-32-26      33.60      0.013      0.00       0.00       0.00       1.50      
P-I3-38-32-38    J3-38-32-38      I5-38-32-27      154.12     0.013      0.00       0.00       0.00       1.50      
P-I5-37-32-32    I5-37-32-32      J1-37-32-35-A    219.38     0.013      0.00       0.00       0.00       5.00      
P-I5-37-32-35    I5-37-32-35      J1-37-32-30-A    322.06     0.013      0.00       0.00       0.00       5.00      
P-I5-38-32-27    I5-38-32-27      I5-38-32-26      398.68     0.013      0.00       0.00       0.00       6.00      
P-J1-35-32-83    J1-35-32-83      O-35-32-42-B     76.50      0.013      0.00       0.00       0.00       1.20      
P-J1-35-32-87    J1-35-32-87      O-35-32-46-C     80.01      0.013      0.00       0.00       0.00       1.20      
P-J1-37-32-32-B  J1-37-32-32-B    I5-37-32-32      135.01     0.013      0.00       0.00       0.00       2.50      
P-J1-37-32-35-A  J1-37-32-35-A    J1-37-32-35-B    152.01     0.013      0.00       0.00       0.00       5.00      
P-J1-37-32-35-B  J1-37-32-35-B    J1-37-32-35-D    250.86     0.013      0.00       0.00       0.00       5.00      
P-J1-37-32-35-D  J1-37-32-35-D    I5-37-32-35      33.00      0.013      0.00       0.00       0.00       5.00      

[XSECTIONS]
;;Link           Shape        Geom1      Geom2      Geom3      Geom4      Barrels
;;-------------- ------------ ---------- ---------- ---------- ---------- ----------
P-I1-36-32-12    CIRCULAR      1.20       0.00       0.000      0.00       1         
P-I1-37-32-39    CIRCULAR      1.20       0.00       0.000      0.00       1         
P-I1-37-32-40    CIRCULAR      1.20       0.00       0.000      0.00       1         
P-I1-37-32-44    CIRCULAR      1.20       0.00       0.000      0.00       1         
P-I1-37-32-57    CIRCULAR      1.20       0.00       0.000      0.00       1         
P-I1-37-32-59    CIRCULAR      1.20       0.00       0.000      0.00       1         
P-I1-37-32-60    CIRCULAR      1.20       0.00       0.000      0.00       1         
P-I2-35-32-52    CIRCULAR      1.20       0.00       0.000      0.00       1         
P-I2-35-32-53    CIRCULAR      1.20       0.00       0.000      0.00       1         
P-I2-35-32-62    CIRCULAR      1.20       0.00       0.000      0.00       1         
P-I2-35-32-63    CIRCULAR      1.20       0.00       0.000      0.00       1         
P-I2-35-32-64    CIRCULAR      1.20       0.00       0.000      0.00       1         
P-I2-35-32-74    CIRCULAR      1.20       0.00       0.000      0.00       1         
P-I2-35-32-75    CIRCULAR      1.20       0.00       0.000      0.00       1         
P-I2-37-32-35-B  CIRCULAR      2.00       0.00       0.000      0.00       1         
P-I3-38-32-2     CIRCULAR      6.00       0.00       0.000      0.00       1         
P-I3-38-32-36    CIRCULAR      1.50       0.00       0.000      0.00       1         
P-I3-38-32-38    CIRCULAR      1.50       0.00       0.000      0.00       1         
P-I5-37-32-32    CIRCULAR      5.00       0.00       0.000      0.00       1         
P-I5-37-32-35    CIRCULAR      5.00       0.00       0.000      0.00       1         
P-I5-38-32-27    CIRCULAR      6.00       0.00       0.000      0.00       1         
P-J1-35-32-83    CIRCULAR      1.20       0.00       0.000      0.00       1         
P-J1-35-32-87    CIRCULAR      1.20       0.00       0.000      0.00       1         
P-J1-37-32-32-B  CIRCULAR      2.50       0.00       0.000      0.00       1         
P-J1-37-32-35-A  CIRCULAR      5.00       0.00       0.000      0.00       1         
P-J1-37-32-35-B  CIRCULAR      5.00       0.00       0.000      0.00       1         
P-J1-37-32-35-D  CIRCULAR      5.00       0.00       0.000      0.00       1         

[LOSSES]
;;Link           Inlet      Outlet     Average    Flap Gate
;;-------------- ---------- ---------- ---------- ----------
P-I1-36-32-12    0.0        0.0        0.00       NO        
P-I1-37-32-39    0.0        0.0        0.00       NO        
P-I1-37-32-40    0.0        0.0        0.00       NO        
P-I1-37-32-44    0.0        0.0        0.00       NO        
P-I1-37-32-57    0.0        0.0        0.00       NO        
P-I1-37-32-59    0.0        0.0        0.00       NO        
P-I1-37-32-60    0.0        0.0        0.00       NO        
P-I2-35-32-52    0.0        0.0        0.00       NO        
P-I2-35-32-53    0.0        0.0        0.00       NO        
P-I2-35-32-62    0.0        0.0        0.00       NO        
P-I2-35-32-63    0.0        0.0        0.00       NO        
P-I2-35-32-64    0.0        0.0        0.00       NO        
P-I2-35-32-74    0.0        0.0        0.00       NO        
P-I2-35-32-75    0.0        0.0        0.00       NO        
P-I2-37-32-35-B  0.0        0.0        0.00       NO        
P-I3-38-32-2     0.0        0.0        0.00       NO        
P-I3-38-32-36    0.0        0.0        0.00       NO        
P-I3-38-32-38    0.0        0.0        0.00       NO        
P-I5-37-32-32    0.0        0.0        0.00       NO        
P-I5-37-32-35    0.0        0.0        0.00       NO        
P-I5-38-32-27    0.0        0.0        0.00       NO        
P-J1-35-32-83    0.0        0.0        0.00       NO        
P-J1-35-32-87    0.0        0.0        0.00       NO        
P-J1-37-32-32-B  0.0        0.0        0.00       NO        
P-J1-37-32-35-A  0.0        0.0        0.00       NO        
P-J1-37-32-35-B  0.0        0.0        0.00       NO        
P-J1-37-32-35-D  0.0        0.0        0.00       NO        

[CONTROLS]



[INFLOWS]
;;Node           Constituent      Time Series      Type     Mfactor  Sfactor  Baseline Pattern
;;-------------- ---------------- ---------------- -------- -------- -------- -------- --------
J3-38-32-2       FLOW             TSTest           FLOW     1.0      0.00     10.0       Pattern_Test
J3-38-32-38      FLOW             TSTest           FLOW     1.0      0.00                Pattern_Test

[TIMESERIES]
;;Name           Date       Time       Value     
;;-------------- ---------- ---------- ----------
;TS Description  
TSTest           06/28/2025 00:00      0.0000 
TSTest           06/28/2025 00:10      1.0000 
TSTest           06/28/2025 00:20      2.0000 
TSTest           06/28/2025 00:30      3.0000 
TSTest           06/28/2025 00:40      4.0000 
;
;TS Description  
TSTest           06/28/2025 00:00      0.0000 
TSTest           06/28/2025 00:10      1.0000 
TSTest           06/28/2025 00:20      2.0000 
TSTest           06/28/2025 00:30      3.0000 
TSTest           06/28/2025 00:40      4.0000 
;

[PATTERNS]
;;Name           Type       Multipliers
;;-------------- ---------- -----------
;Pattern_Description
Pattern_Test     HOURLY     1.00       1.00       1.00       1.00       1.00       1.00      
Pattern_Test                1.00       1.00       1.00       1.00       1.00       1.00      
Pattern_Test                1.00       1.00       1.00       1.00       1.00       1.00      
Pattern_Test                1.00       1.00       1.00       1.00       1.00       1.00      
Pattern_Test                1.00       1.00       1.00       1.00       1.00       1.00      
Pattern_Test                1.00       1.00       1.00       1.00       1.00       1.00      
Pattern_Test                1.00       1.00       1.00       1.00       1.00       1.00      
Pattern_Test                1.00       1.00       1.00       1.00       1.00       1.00      

[REPORT]
INPUT           YES
CONTROLS        YES
SUBCATCHMENTS   NONE
NODES           ALL
LINKS           ALL

[COORDINATES]
;;Node           X-Coord            Y-Coord 
;;-------------- ------------------ ------------------
I1-36-32-12      664628.058919      960545.607039     
I1-37-32-39      664878.186885      960640.481325     
I1-37-32-40      664630.377705      960636.62662      
I1-37-32-57      664568.680983      960639.16007      
I1-37-32-59      665200.990219      960736.239155     
I2-35-32-52      664240.983348      957665.850459     
I2-35-32-53      664246.493797      957704.116676     
I2-35-32-62      664840.479997      957624.277161     
I2-35-32-63      664861.880805      957604.676035     
I2-35-32-64      664636.151236      957573.499645     
I2-35-32-74      664517.681023      957711.495819     
I2-35-32-75      664249.820882      957754.757115     
I2-37-32-35-B    664594.680928      960639.158106     
I3-38-32-36      664378.045543      963460.980944     
I4-37-32-44      664276.672433      960650.101871     
I4-37-32-60      665044.258539      960661.584086     
I5-37-32-32      665249.851495      960601.26163      
I5-37-32-35      664594.678025      960596.358287     
I5-38-32-26      664366.342448      963492.476968     
I5-38-32-27      664741.382483      963627.594999     
J1-35-32-83      664840.929183      957520.632145     
J1-35-32-87      664485.411918      957609.135013     
J1-37-32-30-A    664272.659028      960593.948447     
J1-37-32-32-B    665249.789984      960736.261475     
J1-37-32-35-A    665030.496321      960599.619855     
J1-37-32-35-B    664878.50091       960598.482686     
J1-37-32-35-D    664627.676971      960596.60534      
J3-38-32-2       665424.58813       963818.515744     
J3-38-32-38      664722.910276      964052.408362     
O-35-32-35-A     664192.049929      957292.491761     
O-35-32-42-B     664824.398586      957264.675838     
O-35-32-46-B     664603.725594      957270.239023     
O-35-32-46-C     664420.1405        957279.510997     

[VERTICES]
;;Link           X-Coord            Y-Coord           
;;-------------- ------------------ ------------------
P-J1-37-32-35-A  664909.1005823631  960598.7116944762 